! R2SCAN 3-21G  ROKS LARGEPRINT

*xyz 9 1
Rb 0.0 0.0 0.0
*
%basis
newgto Rb
S   8
1   3739746.25060054             0.0000830
2    577563.02778853             0.0006186
3    139835.54976157             0.0028433
4     43084.38255770             0.0109623
5     15426.57773886             0.0326035
6      6199.15697858             0.0955895
7      2579.69748769             0.2500748
8      1047.93768913             0.6883222
S   1
1       428.62269126             1.0000000
S   2
1       181.61815160             0.8423483
2        77.13409799             0.1760115
S   2
1        36.54602720             0.4167499
2        17.59772125             0.6065732
S   3
1         8.43711814            -0.0131954
2         4.19933738            -0.4890020
3         2.08598299            -0.5220114
S   1
1         0.80784511             1.0000000
S   1
1         0.40392907            -1.0000000
S   1
1         0.19330640            -1.0000000
S   1
1         0.02453644             1.0000000
P   8
1     18263.34077532             0.0001549
2      4376.45136895             0.0012921
3      1530.21368441             0.0059980
4       636.90362256             0.0232486
5       268.96109305             0.0864132
6       114.28545366             0.2446808
7        50.03178296             0.4327934
8        22.63971584             0.3635177
P   1
1        10.01200025            -1.0000000
P   2
1         4.59261339            -0.6806365
2         2.13332672            -0.3586834
P   2
1         0.87560981             0.4126773
2         0.36688434             0.6400702
P   1
1         0.14550725             1.0000000
P   1
1         0.06321458             1.0000000
P   1
1         0.01953956             1.0000000
D   5
1       126.33778704             0.0214803
2        36.70963339             0.1306672
3        13.04469742             0.3624986
4         4.83259033             0.4942769
5         1.70567407             0.2622603
D   1
1         0.41209482             1.0000000
D   1
1         0.06849964             1.0000000
F   1
1         0.07757084             1.0000000
end
end
