! RHF AllowRHF def2-SVP def2/J  NoMulliken NoLoewdin NoMayer NoPrintMOs 

%output print[p_atomdensfit] 2 end

%scf
  guess hcore
  maxiter 1000
  maxdisk 500000
  SCFMode Conventional
  lshift 1.000000
  hftyp rohf
  rohf_case sahf
  rohf_numop   2
  rohf_norb[1] 1
  rohf_nel[1]  1
end
%basis
  NewECP 37
    N_core 28
    lmax f
    s 3
      1       5.0365510000     89.5001980000  2
      2       1.9708490000      0.4937610000  2
      3       3.8431140000     12.3169000000  2
    p 3
      1       4.2583410000     58.5689740000  2
      2       1.4707090000      0.4317910000  2
      3       3.8431140000     12.3169000000  2
    d 3
      1       3.0231270000     26.2248980000  2
      2       0.6503830000      0.9628390000  2
      3       3.8431140000     12.3169000000  2
    f 1
      1       3.8431140000    -12.3169000000  2
  end
  NewGTO 37
    s 2 
     1       7.4744618040      1.7106146109
     2       6.7296180594     -2.7010364459
    s 1 
     1       2.7816640004      1.0000000000
    s 1 
     1       0.5345217515      1.0000000000
    s 1 
     1       0.2236879303      1.0000000000
    s 1 
     1       0.0324104071      1.0000000000
    s 1 
     1       0.0141710474      1.0000000000
    p 4 
     1       5.6720643194      0.0525368698
     2       3.3320183956     -0.2018427941
     3       0.8015005491      0.4674711930
     4       0.3630222023      0.6406638595
    p 1 
     1       0.1573392439      1.0000000000
    p 1 
     1       0.0400000000      1.0000000000
    p 1 
     1       0.0160000000      1.0000000000
    d 1 
     1       0.2590786696      1.0000000000
    d 1 
     1       0.0425074380      1.0000000000
    d 1 
     1       0.0119092768      1.0000000000
  end
  NewAuxGTO 37
    S 1
     1 1310.72 1.0
    S 1
     1  655.36 1.0
    S 1
     1  327.68 1.0
    S 1
     1  163.84 1.0
    S 1
     1   81.82 1.0
    S 1
     1   40.96 1.0
    S 1
     1   20.48 1.0
    S 1
     1   10.24 1.0
    S 1
     1    5.12 1.0
    S 1
     1    2.56 1.0
    S 1
     1    1.28 1.0
    S 1
     1    0.64 1.0
    S 1
     1    0.32 1.0
    S 1
     1    0.16 1.0
    S 1
     1    0.08 1.0
    S 1
     1    0.04 1.0
    S 1
     1    0.02 1.0
    S 1
     1    0.01 1.0
  end
end
* xyz 0 2
37  0.0 0.0 0.0
*