## avogadro generated ORCA input file 
# Advanced Mode
# 
! RKS R2SCAN SP def2-SVP NormalPrint NORI ExtremeSCF

* xyz 0 1
C         -4.70264        2.19657       -0.00000
C         -4.71280        0.80178       -0.00000
C         -3.50996        0.09559       -0.00000
C         -2.29696        0.78419       -0.00000
C         -2.28680        2.17898       -0.00000
C         -3.48964        2.88517       -0.00000
H         -3.48173        3.97187       -0.00000
H         -5.63980        2.74677       -0.00000
H         -5.65787        0.26528        0.00000
H         -3.51787       -0.99111       -0.00000
H         -1.35980        0.23398       -0.00000
H         -1.34173        2.71547       -0.00000
*


