# input to generate an atomic fitting density for Nd
# this file is used internally by ORCA
#
# atomic ground state (S=5): 1s2 2s2 2p6 3s2 3p6 4s2 3d10 4p6 5s2 4d10 5p6 6s2 4f4 
#
! RHF AllowRHF def2-SVP def2/J  NoMulliken NoLoewdin NoMayer NoPrintMOs 

%output print[p_atomdensfit] 2 end

%scf
  guess hcore
  maxiter 1000
  maxdisk 500000
  SCFMode Conventional
  lshift 1.000000
  hftyp rohf
  rohf_case sahf
  rohf_numop   3
  rohf_norb[1] 1,7
  rohf_nel[1]  2,4
end

%basis
  NewECP 60
    N_core 28
    lmax h
    s 1
      1      21.3522670000    574.3709800000  2
    p 1
      1      16.1192650000    280.9464400000  2
    d 1
      1      14.4941030000    138.6706270000  2
    f 1
      1      23.1838600000    -47.5226680000  2
    g 1
      1      18.3441740000    -23.3445870000  2
    h 1
      1       1.0000000000      0.0000000000  2
  end
  NewGTO 60
    s 5 
     1   67945.5900000000      0.0021121821
     2    9404.4083000000      0.0176015179
     3    2084.3177000000      0.0858954072
     4     586.9895000000      0.2496599293
     5     142.9406000000      0.7592590744
    s 1 
     1      39.6722000000      1.0000000000
    s 1 
     1      28.0878000000      1.0000000000
    s 1 
     1      13.0569000000      1.0000000000
    s 1 
     1       3.3514000000      1.0000000000
    s 1 
     1       1.7247000000      1.0000000000
    s 1 
     1       0.6427000000      1.0000000000
    s 1 
     1       0.2828000000      1.0000000000
    s 1 
     1       0.0519000000      1.0000000000
    s 1 
     1       0.0217000000      1.0000000000
    p 6 
     1    1541.9152978000     -0.0003325271
     2     335.4028904900     -0.0027079580
     3     106.7420332200     -0.0078561862
     4      22.8967101960     -0.3351173317
     5      14.2003993160      1.1405939047
     6       3.0867394424     -1.1972091667
    p 3 
     1       6.7103596337     -0.2136012036
     2       4.1550367670     -0.4726262140
     3       1.9929222501     -0.3739450083
    p 1 
     1       1.1874978721      1.0000000000
    p 1 
     1       0.6525933972      1.0000000000
    p 1 
     1       0.2936229805      1.0000000000
    p 1 
     1       0.1174769238      1.0000000000
    p 1 
     1       0.0322160831      1.0000000000
    d 6 
     1     350.9612000000      0.0004536209
     2     105.9621000000      0.0035742750
     3      38.4704000000      0.0177201683
     4      15.4826000000     -0.0511594255
     5       7.4260000000      0.3603133051
     6       3.9996000000      0.7027488007
    d 1 
     1       2.0642000000      1.0000000000
    d 1 
     1       0.9898000000      1.0000000000
    d 1 
     1       0.3370000000      1.0000000000
    d 1 
     1       0.1051000000      1.0000000000
    f 5 
     1     126.0845000000      0.0037804415
     2      45.1679000000      0.0410505124
     3      20.1700000000      0.1638574237
     4       9.0999000000      0.3784897274
     5       4.1085000000      0.5911064920
    f 1 
     1       1.7914000000      1.0000000000
    f 1 
     1       0.7258000000      1.0000000000
    f 1 
     1       0.2562000000      1.0000000000
  end
  NewAuxGTO 60
    S 1
     1 1310.72 1.0
    S 1
     1  655.36 1.0
    S 1
     1  327.68 1.0
    S 1
     1  163.84 1.0
    S 1
     1   81.82 1.0
    S 1
     1   40.96 1.0
    S 1
     1   20.48 1.0
    S 1
     1   10.24 1.0
    S 1
     1    5.12 1.0
    S 1
     1    2.56 1.0
    S 1
     1    1.28 1.0
    S 1
     1    0.64 1.0
    S 1
     1    0.32 1.0
    S 1
     1    0.16 1.0
    S 1
     1    0.08 1.0
    S 1
     1    0.04 1.0
    S 1
     1    0.02 1.0
    S 1
     1    0.01 1.0
  end
end

* xyz 0 5
60  0.0 0.0 0.0
*