# input to generate an atomic fitting density for Sb
# this file is used internally by ORCA
#
# atomic ground state (S=4): 1s2 2s2 2p6 3s2 3p6 4s2 3d10 4p6 5s2 4d10 5p3 
#
! RHF AllowRHF def2-SVP def2/J  NoMulliken NoLoewdin NoMayer NoPrintMOs 

%output print[p_atomdensfit] 2 end

%scf
  guess hcore
  maxiter 1000
  maxdisk 500000
  SCFMode Conventional
  lshift 1.000000
  hftyp rohf
  rohf_case sahf
  rohf_numop   2
  rohf_norb[1] 3
  rohf_nel[1]  3
end

%basis
  NewECP 51
    N_core 28
    lmax f
    s 4
      1      16.3308650000    281.0715810000  2
      2       8.5565420000     61.7166040000  2
      3      14.4449780000     15.3668010000  2
      4      14.4492950000     20.2961380000  2
    p 6
      1      14.4703370000     67.4573800000  2
      2      13.8161940000    134.9335030000  2
      3       8.4249240000     14.7163440000  2
      4       8.0927280000     29.5185120000  2
      5      14.4449780000     15.3668010000  2
      6      14.4492950000     20.2961380000  2
    d 6
      1      14.8863310000     35.4478150000  2
      2      15.1463190000     53.1434660000  2
      3       5.9082670000      9.1792230000  2
      4       5.5943220000     13.2402530000  2
      5      14.4449780000     15.3668010000  2
      6      14.4492950000     20.2961380000  2
    f 2
      1      14.4449780000    -15.3668010000  2
      2      14.4492950000    -20.2961380000  2
  end
  NewGTO 51
    s 4 
     1    1612.4199933000      0.0007372999
     2     238.8445209700      0.0034600912
     3      23.9981188090     -0.1275872306
     4      15.1931242130      1.1209761019
    s 2 
     1      11.7364097330      0.5460510418
     2       6.5259774794      0.4696473608
    s 1 
     1       2.0247451872      1.0000000000
    s 1 
     1       0.9711341859      1.0000000000
    s 1 
     1       0.2425433400      1.0000000000
    s 1 
     1       0.0922066082      1.0000000000
    p 3 
     1     215.6839335400      0.0012613511
     2      16.3744790880      0.3569688834
     3       9.7216283345     -1.3183963636
    p 3 
     1       2.7982643154      0.4267498157
     2       1.4711045033      0.4624851698
     3       0.7516538530      0.1717797266
    p 1 
     1       0.3316869985      1.0000000000
    p 1 
     1       0.1393160637      1.0000000000
    p 1 
     1       0.0563993075      1.0000000000
    d 6 
     1     115.9031225300      0.0005820965
     2      30.4742337200      0.0065077945
     3      18.2284182390     -0.0115713038
     4       4.3291456646      0.2228904538
     5       2.1294818496      0.4682584302
     6       0.9968263669      0.4221557564
    d 1 
     1       0.4334723986      1.0000000000
    d 1 
     1       0.1400000000      1.0000000000
  end
  NewAuxGTO 51
    S 1
     1 1310.72 1.0
    S 1
     1  655.36 1.0
    S 1
     1  327.68 1.0
    S 1
     1  163.84 1.0
    S 1
     1   81.82 1.0
    S 1
     1   40.96 1.0
    S 1
     1   20.48 1.0
    S 1
     1   10.24 1.0
    S 1
     1    5.12 1.0
    S 1
     1    2.56 1.0
    S 1
     1    1.28 1.0
    S 1
     1    0.64 1.0
    S 1
     1    0.32 1.0
    S 1
     1    0.16 1.0
    S 1
     1    0.08 1.0
    S 1
     1    0.04 1.0
    S 1
     1    0.02 1.0
    S 1
     1    0.01 1.0
  end
end

* xyz 0 4
51  0.0 0.0 0.0
*