# input to generate an atomic fitting density for I 
# this file is used internally by ORCA
#
# atomic ground state (S=2): 1s2 2s2 2p6 3s2 3p6 4s2 3d10 4p6 5s2 4d10 5p5 
#
! RHF AllowRHF def2-SVP def2/J  NoMulliken NoLoewdin NoMayer NoPrintMOs 

%output print[p_atomdensfit] 2 end

%scf
  guess hcore
  maxiter 1000
  maxdisk 500000
  SCFMode Conventional
  lshift 1.000000
  hftyp rohf
  rohf_case sahf
  rohf_numop   2
  rohf_norb[1] 3
  rohf_nel[1]  5
end

%basis
  NewECP 53
    N_core 28
    lmax f
    s 7
      1      40.0158350000     49.9942930000  2
      2      17.4297470000    281.0253170000  2
      3       9.0054840000     61.5733260000  2
      4      19.4586090000     21.8420400000  2
      5      19.3492600000     28.4681910000  2
      6       4.8237670000      0.2437130000  2
      7       4.8843150000      0.3208040000  2
    p 8
      1      15.3554660000     67.4428410000  2
      2      14.9718330000    134.8811370000  2
      3       8.9601640000     14.6750510000  2
      4       8.2590960000     29.3756660000  2
      5      19.4586090000     21.8420400000  2
      6      19.3492600000     28.4681910000  2
      7       4.8237670000      0.2437130000  2
      8       4.8843150000      0.3208040000  2
    d 10
      1      15.0689080000     35.4395290000  2
      2      14.5553220000     53.1760570000  2
      3       6.7186470000      9.0671950000  2
      4       6.4563930000     13.2069370000  2
      5       1.1917790000      0.0893350000  2
      6       1.2911570000      0.0523800000  2
      7      19.4586090000     21.8420400000  2
      8      19.3492600000     28.4681910000  2
      9       4.8237670000      0.2437130000  2
     10       4.8843150000      0.3208040000  2
    f 4
      1      19.4586090000    -21.8420400000  2
      2      19.3492600000    -28.4681910000  2
      3       4.8237670000     -0.2437130000  2
      4       4.8843150000     -0.3208040000  2
  end
  NewGTO 53
    s 5 
     1    5899.5791533000      0.0002610056
     2     898.5423876500      0.0016697400
     3     200.3723791200      0.0046223298
     4      31.4180538400     -0.0425342684
     5      15.6459878380      1.0368318419
    s 2 
     1      11.8157418570      0.6510798928
     2       6.4614458287      0.3642365936
    s 1 
     1       2.3838067579      1.0000000000
    s 1 
     1       1.1712089662      1.0000000000
    s 1 
     1       0.3211587576      1.0000000000
    s 1 
     1       0.1238791936      1.0000000000
    p 3 
     1     197.3003054700      0.0031927743
     2      20.0614113490      0.2856760152
     3       9.7631460485     -1.2328204991
    p 4 
     1      12.9843169040     -0.0386816591
     2       3.6199503008      0.3065970959
     3       2.0232273090      0.5169312450
     4       1.0367490559      0.2505722415
    p 1 
     1       0.4593781600      1.0000000000
    p 1 
     1       0.1911653293      1.0000000000
    p 1 
     1       0.0748788130      1.0000000000
    d 6 
     1     119.1267174500      0.0008836387
     2      33.4042401340      0.0073152612
     3      17.8059182030     -0.0110279962
     4       4.8990510353      0.2425357632
     5       2.4516753106      0.4726529042
     6       1.1820693432      0.3934356930
    d 1 
     1       0.5292311007      1.0000000000
    d 1 
     1       0.1700000000      1.0000000000
  end
  NewAuxGTO 53
    S 1
     1 1310.72 1.0
    S 1
     1  655.36 1.0
    S 1
     1  327.68 1.0
    S 1
     1  163.84 1.0
    S 1
     1   81.82 1.0
    S 1
     1   40.96 1.0
    S 1
     1   20.48 1.0
    S 1
     1   10.24 1.0
    S 1
     1    5.12 1.0
    S 1
     1    2.56 1.0
    S 1
     1    1.28 1.0
    S 1
     1    0.64 1.0
    S 1
     1    0.32 1.0
    S 1
     1    0.16 1.0
    S 1
     1    0.08 1.0
    S 1
     1    0.04 1.0
    S 1
     1    0.02 1.0
    S 1
     1    0.01 1.0
  end
end

* xyz 0 2
53  0.0 0.0 0.0
*
