# input to generate an atomic fitting density for Yb
# this file is used internally by ORCA
#
# atomic ground state (S=1): 1s2 2s2 2p6 3s2 3p6 4s2 3d10 4p6 5s2 4d10 5p6 6s2 4f14 
#
! RHF AllowRHF def2-SVP def2/J  NoMulliken NoLoewdin NoMayer NoPrintMOs 

%output print[p_atomdensfit] 2 end

%scf
  guess hcore
  maxiter 1000
  maxdisk 500000
  SCFMode Conventional
  lshift 1.000000
  hftyp rohf
  rohf_case sahf
  rohf_numop   2
  rohf_norb[1] 7
  rohf_nel[1]  14
end

%basis
  NewECP 70
    N_core 28
    lmax h
    s 1
      1      32.4244840000    891.0137770000  2
    p 1
      1      18.6562320000    264.0369530000  2
    d 1
      1      10.4902220000     73.9239190000  2
    f 1
      1      20.7741830000    -39.5921730000  2
    g 1
      1      28.4310280000    -34.6386380000  2
    h 1
      1       1.0000000000      0.0000000000  2
  end
  NewGTO 70
    s 5 
     1   91972.9030000000      0.0034906429
     2   13787.3710000000      0.0264193757
     3    3123.6135000000      0.1262106966
     4     871.4754000000      0.3665859494
     5     250.4630000000      0.6063452065
    s 1 
     1      58.2827000000      1.0000000000
    s 1 
     1      41.6305000000      1.0000000000
    s 1 
     1      20.2164000000      1.0000000000
    s 1 
     1       4.9972000000      1.0000000000
    s 1 
     1       2.4822000000      1.0000000000
    s 1 
     1       0.9179000000      1.0000000000
    s 1 
     1       0.3853000000      1.0000000000
    s 1 
     1       0.0614000000      1.0000000000
    s 1 
     1       0.0250000000      1.0000000000
    p 6 
     1    1497.5567000000     -0.0053002773
     2     375.0410100000     -0.0317089081
     3     128.6972700000     -0.0888904010
     4      45.2707590000     -0.1855890257
     5      14.9069710000      1.2352763848
     6       5.6450858000     -1.5906498677
    p 3 
     1      12.2741080000     -0.3214732915
     2      10.6956310000     -0.4266772779
     3       2.0359782000     -0.4135578238
    p 1 
     1       3.6752106000      1.0000000000
    p 1 
     1       1.3296961000      1.0000000000
    p 1 
     1       0.5533896600      1.0000000000
    p 1 
     1       0.2238235000      1.0000000000
    p 1 
     1       0.0683504676      1.0000000000
    p 1 
     1       0.0253556708      1.0000000000
    d 6 
     1     469.7606000000      0.0025049786
     2     142.6128000000      0.0202178541
     3      55.1267000000      0.0797363480
     4      23.4415000000      0.1739849058
     5       9.4951000000      0.3604669276
     6       4.5792000000      0.5534045723
    d 1 
     1       2.1646000000      1.0000000000
    d 1 
     1       0.9238000000      1.0000000000
    d 1 
     1       0.3107000000      1.0000000000
    d 1 
     1       0.0914000000      1.0000000000
    f 5 
     1     142.0293000000      0.0081365250
     2      51.0862000000      0.0726373010
     3      22.8741000000      0.2432297859
     4      10.5025000000      0.4105824122
     5       4.7872000000      0.4785238305
    f 1 
     1       2.1088000000      1.0000000000
    f 1 
     1       0.8609000000      1.0000000000
    f 1 
     1       0.3060000000      1.0000000000
  end
  NewAuxGTO 70
    S 1
     1 1310.72 1.0
    S 1
     1  655.36 1.0
    S 1
     1  327.68 1.0
    S 1
     1  163.84 1.0
    S 1
     1   81.82 1.0
    S 1
     1   40.96 1.0
    S 1
     1   20.48 1.0
    S 1
     1   10.24 1.0
    S 1
     1    5.12 1.0
    S 1
     1    2.56 1.0
    S 1
     1    1.28 1.0
    S 1
     1    0.64 1.0
    S 1
     1    0.32 1.0
    S 1
     1    0.16 1.0
    S 1
     1    0.08 1.0
    S 1
     1    0.04 1.0
    S 1
     1    0.02 1.0
    S 1
     1    0.01 1.0
  end
end

* xyz 0 1
70  0.0 0.0 0.0
*