# input to generate an atomic fitting density for Sn
# this file is used internally by ORCA
#
# atomic ground state (S=3): 1s2 2s2 2p6 3s2 3p6 4s2 3d10 4p6 5s2 4d10 5p2 
#
! RHF AllowRHF def2-SVP def2/J  NoMulliken NoLoewdin NoMayer NoPrintMOs 

%output print[p_atomdensfit] 2 end

%scf
  guess hcore
  maxiter 1000
  maxdisk 500000
  SCFMode Conventional
  lshift 1.000000
  hftyp rohf
  rohf_case sahf
  rohf_numop   2
  rohf_norb[1] 3
  rohf_nel[1]  2
end

%basis
  NewECP 50
    N_core 28
    lmax f
    s 4
      1      17.4204140000    279.9886820000  2
      2       7.6311550000     62.3778100000  2
      3      12.2823480000     12.5763330000  2
      4      12.2721500000     16.5959440000  2
    p 6
      1      16.1310240000     66.1625230000  2
      2      15.6280770000    132.1743960000  2
      3       7.3256080000     16.3394170000  2
      4       6.9425190000     32.4889590000  2
      5      12.2823480000     12.5763330000  2
      6      12.2721500000     16.5959440000  2
    d 6
      1      15.5149760000     36.3874410000  2
      2      15.1881600000     54.5078410000  2
      3       5.4560240000      8.6968230000  2
      4       5.3631050000     12.8402080000  2
      5      12.2823480000     12.5763330000  2
      6      12.2721500000     16.5959440000  2
    f 2
      1      12.2823480000    -12.5763330000  2
      2      12.2721500000    -16.5959440000  2
  end
  NewGTO 50
    s 4 
     1    1577.0715931000      0.0003218419
     2     235.2660107800      0.0015384537
     3      38.2063306450     -0.0073758372
     4      13.0970317650      1.0055154359
    s 2 
     1      11.6814927590      0.6809914776
     2       5.9647604361      0.3371650694
    s 1 
     1       1.8891070740      1.0000000000
    s 1 
     1       0.8851408063      1.0000000000
    s 1 
     1       0.2050010515      1.0000000000
    s 1 
     1       0.0767485510      1.0000000000
    p 3 
     1     221.5576749600      0.0012361685
     2      21.0840214330      0.1235490029
     3       8.7600138521     -1.0950328657
    p 3 
     1       2.5912909722      0.4264068280
     2       1.3426801157      0.4614253825
     3       0.6773273583      0.1761114631
    p 1 
     1       0.2941875675      1.0000000000
    p 1 
     1       0.1186376205      1.0000000000
    p 1 
     1       0.0462157506      1.0000000000
    d 6 
     1     108.3321015400      0.0005147458
     2      23.7039366300      0.0597673518
     3      22.3398439060     -0.0651463263
     4       4.0874834028      0.2165527797
     5       1.9737354146      0.4676504978
     6       0.9015825769      0.4339425891
    d 1 
     1       0.3823715365      1.0000000000
    d 1 
     1       0.1200000000      1.0000000000
  end
  NewAuxGTO 50
    S 1
     1 1310.72 1.0
    S 1
     1  655.36 1.0
    S 1
     1  327.68 1.0
    S 1
     1  163.84 1.0
    S 1
     1   81.82 1.0
    S 1
     1   40.96 1.0
    S 1
     1   20.48 1.0
    S 1
     1   10.24 1.0
    S 1
     1    5.12 1.0
    S 1
     1    2.56 1.0
    S 1
     1    1.28 1.0
    S 1
     1    0.64 1.0
    S 1
     1    0.32 1.0
    S 1
     1    0.16 1.0
    S 1
     1    0.08 1.0
    S 1
     1    0.04 1.0
    S 1
     1    0.02 1.0
    S 1
     1    0.01 1.0
  end
end

* xyz 0 3
50  0.0 0.0 0.0
*