# input to generate an atomic fitting density for Ba
# this file is used internally by ORCA
#
# atomic ground state (S=1): 1s2 2s2 2p6 3s2 3p6 4s2 3d10 4p6 5s2 4d10 5p6 6s2 
#
! RHF AllowRHF def2-SVP def2/J  NoMulliken NoLoewdin NoMayer NoPrintMOs 

%output print[p_atomdensfit] 2 end

%scf
  guess hcore
  maxiter 1000
  maxdisk 500000
  SCFMode Conventional
  lshift 1.000000
  hftyp rohf
  rohf_case sahf
  rohf_numop   2
  rohf_norb[1] 1
  rohf_nel[1]  2
end

%basis
  NewECP 56
    N_core 46
    lmax f
    s 3
      1       9.5269860000    427.8458160000  2
      2       4.4875100000    204.4175300000  2
      3       3.5894650000     33.4731740000  2
    p 3
      1       8.3159300000    293.6058640000  2
      2       4.2922170000    294.1933160000  2
      3       3.5894650000     33.4731740000  2
    d 3
      1       5.9161080000    112.5504020000  2
      2       2.8748420000    181.7826210000  2
      3       3.5894650000     33.4731740000  2
    f 1
      1       3.5894650000    -33.4731740000  2
  end
  NewGTO 56
    s 2 
     1       6.0000000000     -1.3541492382
     2       4.9822082226      2.3335596784
    s 1 
     1       2.1451943914      1.0000000000
    s 1 
     1       0.4148617410      1.0000000000
    s 1 
     1       0.1921475702      1.0000000000
    s 1 
     1       0.0484658903      1.0000000000
    s 1 
     1       0.0201382989      1.0000000000
    p 4 
     1       5.5000000000     -0.7557615693
     2       4.9017938336      1.1484911917
     3       2.6142685062     -0.7799032231
     4       0.4790339498      1.1653421903
    p 1 
     1       0.1941513875      1.0000000000
    p 1 
     1       0.0349176220      1.0000000000
    p 1 
     1       0.0163200657      1.0000000000
    d 3 
     1       0.9663150000     -2.3704711667
     2       0.8938280000      2.4703611334
     3       0.2731950000      0.8399107888
    d 1 
     1       0.1038910000      1.0000000000
    d 1 
     1       0.0355780000      1.0000000000
  end
  NewAuxGTO 56
    S 1
     1 1310.72 1.0
    S 1
     1  655.36 1.0
    S 1
     1  327.68 1.0
    S 1
     1  163.84 1.0
    S 1
     1   81.82 1.0
    S 1
     1   40.96 1.0
    S 1
     1   20.48 1.0
    S 1
     1   10.24 1.0
    S 1
     1    5.12 1.0
    S 1
     1    2.56 1.0
    S 1
     1    1.28 1.0
    S 1
     1    0.64 1.0
    S 1
     1    0.32 1.0
    S 1
     1    0.16 1.0
    S 1
     1    0.08 1.0
    S 1
     1    0.04 1.0
    S 1
     1    0.02 1.0
    S 1
     1    0.01 1.0
  end
end

* xyz 0 1
56  0.0 0.0 0.0
*