# input to generate an atomic fitting density for In
# this file is used internally by ORCA
#
# atomic ground state (S=2): 1s2 2s2 2p6 3s2 3p6 4s2 3d10 4p6 5s2 4d10 5p1 
#
! RHF AllowRHF def2-SVP def2/J  NoMulliken NoLoewdin NoMayer NoPrintMOs 

%output print[p_atomdensfit] 2 end

%scf
  guess hcore
  maxiter 1000
  maxdisk 500000
  SCFMode Conventional
  lshift 1.000000
  hftyp rohf
  rohf_case sahf
  rohf_numop   2
  rohf_norb[1] 3
  rohf_nel[1]  1
end

%basis
  NewECP 49
    N_core 28
    lmax f
    s 4
      1      15.3928220000    281.1223500000  2
      2       8.0558640000     61.9014700000  2
      3      12.5390560000     13.7280780000  2
      4      12.5525610000     18.2068660000  2
    p 6
      1      13.9286720000     67.4621540000  2
      2      13.3472340000    134.9492500000  2
      3       7.6141320000     14.7461400000  2
      4       7.3183650000     29.6392620000  2
      5      12.5390560000     13.7280780000  2
      6      12.5525610000     18.2068660000  2
    d 6
      1      14.0347150000     35.4932540000  2
      2      14.5116160000     53.1787730000  2
      3       5.5505500000      9.1772810000  2
      4       5.0594150000     12.3924100000  2
      5      12.5390560000     13.7280780000  2
      6      12.5525610000     18.2068660000  2
    f 2
      1      12.5390560000    -13.7280780000  2
      2      12.5525610000    -18.2068660000  2
  end
  NewGTO 49
    s 4 
     1     847.7927677400      0.0001991321
     2      72.0410548240      0.0037802215
     3      41.0613165220     -0.0137092240
     4      12.4076097130      1.0083428725
    s 2 
     1      11.6403169410      0.7070046123
     2       6.3695642727      0.3069946789
    s 1 
     1       1.7063236353      1.0000000000
    s 1 
     1       0.7866696794      1.0000000000
    s 1 
     1       0.1696519687      1.0000000000
    s 1 
     1       0.0620748587      1.0000000000
    p 3 
     1     268.2813668500      0.0005395928
     2      14.7815537820      0.3636176018
     3       8.8041476194     -1.3245278979
    p 3 
     1       2.3717277227      0.4522459931
     2       1.1927065422      0.4560012447
     3       0.5835281204      0.1590437856
    p 1 
     1       0.2328096831      1.0000000000
    p 1 
     1       0.0886740652      1.0000000000
    p 1 
     1       0.0335988283      1.0000000000
    d 6 
     1      94.2825750630      0.0004827846
     2      19.7164311020      0.7069200083
     3      19.6001068240     -0.7151524082
     4       3.5643186737      0.2343275366
     5       1.7017801400      0.4659361930
     6       0.7645661553      0.4248916296
    d 1 
     1       0.3182676558      1.0000000000
    d 1 
     1       0.1000000000      1.0000000000
  end
  NewAuxGTO 49
    S 1
     1 1310.72 1.0
    S 1
     1  655.36 1.0
    S 1
     1  327.68 1.0
    S 1
     1  163.84 1.0
    S 1
     1   81.82 1.0
    S 1
     1   40.96 1.0
    S 1
     1   20.48 1.0
    S 1
     1   10.24 1.0
    S 1
     1    5.12 1.0
    S 1
     1    2.56 1.0
    S 1
     1    1.28 1.0
    S 1
     1    0.64 1.0
    S 1
     1    0.32 1.0
    S 1
     1    0.16 1.0
    S 1
     1    0.08 1.0
    S 1
     1    0.04 1.0
    S 1
     1    0.02 1.0
    S 1
     1    0.01 1.0
  end
end

* xyz 0 2
49  0.0 0.0 0.0
*