# input to generate an atomic fitting density for Lu
# this file is used internally by ORCA
#
# atomic ground state (S=4): 1s2 2s2 2p6 3s2 3p6 4s2 3d10 4p6 5s2 4d10 5p6 6s2 5d3 
#
! RHF AllowRHF def2-SVP def2/J  NoMulliken NoLoewdin NoMayer NoPrintMOs 

%output print[p_atomdensfit] 2 end

%scf
  guess hcore
  maxiter 1000
  maxdisk 500000
  SCFMode Conventional
  lshift 1.000000
  hftyp rohf
  rohf_case sahf
  rohf_numop   2
  rohf_norb[1] 5
  rohf_nel[1]  3
end

%basis
  NewECP 71
    N_core 28
    lmax h
    s 1
      1      35.1620970000    989.9955840000  2
    p 1
      1      19.4644020000    278.8656520000  2
    d 1
      1      10.0068650000     71.0091780000  2
    f 1
      1      23.5179320000    -47.4058900000  2
    g 1
      1      29.4122380000    -35.5571460000  2
    h 1
      1       1.0000000000      0.0000000000  2
  end
  NewGTO 71
    s 5 
     1   95169.7670000000      0.0030885291
     2   15488.4030000000      0.0203562145
     3    3776.2335000000      0.0913923835
     4    1079.0501000000      0.2861101039
     5     268.9538000000      0.7197676657
    s 1 
     1      63.4679000000      1.0000000000
    s 1 
     1      45.1332000000      1.0000000000
    s 1 
     1      21.4568000000      1.0000000000
    s 1 
     1       5.3483000000      1.0000000000
    s 1 
     1       2.6778000000      1.0000000000
    s 1 
     1       1.0287000000      1.0000000000
    s 1 
     1       0.4408000000      1.0000000000
    s 1 
     1       0.0791000000      1.0000000000
    s 1 
     1       0.0313000000      1.0000000000
    p 6 
     1    1500.5317313000     -0.0052121446
     2     382.3974893700     -0.0304141760
     3     132.9996962800     -0.0831746759
     4      46.1100324190     -0.1821686147
     5      15.5835290110      1.2124089220
     6       5.7856677022     -1.5684127914
    p 3 
     1      12.3337339200     -0.3236172205
     2      11.0803314150     -0.4290231439
     3       2.0341747228     -0.4112223607
    p 1 
     1       3.7823361008      1.0000000000
    p 1 
     1       1.3682592248      1.0000000000
    p 1 
     1       0.5728820560      1.0000000000
    p 1 
     1       0.2279316513      1.0000000000
    p 1 
     1       0.0814039180      1.0000000000
    p 1 
     1       0.0290910718      1.0000000000
    d 6 
     1     484.5275000000      0.0027300578
     2     146.6655000000      0.0222477021
     3      56.3779000000      0.0884796691
     4      23.6711000000      0.1929360283
     5       9.4401000000      0.3679379890
     6       4.3712000000      0.5354233339
    d 1 
     1       1.9580000000      1.0000000000
    d 1 
     1       0.7272000000      1.0000000000
    d 1 
     1       0.2460000000      1.0000000000
    d 1 
     1       0.0744000000      1.0000000000
    f 5 
     1     175.1559000000      0.0060676828
     2      62.8909000000      0.0578160531
     3      28.3624000000      0.2175076424
     4      13.2478000000      0.4009995769
     5       6.1440000000      0.5113080385
    f 1 
     1       2.7623000000      1.0000000000
    f 1 
     1       1.1574000000      1.0000000000
    f 1 
     1       0.4244000000      1.0000000000
  end
  NewAuxGTO 71
    S 1
     1 1310.72 1.0
    S 1
     1  655.36 1.0
    S 1
     1  327.68 1.0
    S 1
     1  163.84 1.0
    S 1
     1   81.82 1.0
    S 1
     1   40.96 1.0
    S 1
     1   20.48 1.0
    S 1
     1   10.24 1.0
    S 1
     1    5.12 1.0
    S 1
     1    2.56 1.0
    S 1
     1    1.28 1.0
    S 1
     1    0.64 1.0
    S 1
     1    0.32 1.0
    S 1
     1    0.16 1.0
    S 1
     1    0.08 1.0
    S 1
     1    0.04 1.0
    S 1
     1    0.02 1.0
    S 1
     1    0.01 1.0
  end
end

* xyz 0 4
71  0.0 0.0 0.0
*