# input to generate an atomic fitting density for La
# this file is used internally by ORCA
#
# atomic ground state (S=2): 1s2 2s2 2p6 3s2 3p6 4s2 3d10 4p6 5s2 4d10 5p6 6s2 5d1 
#
! RHF AllowRHF def2-SVP def2/J  NoMulliken NoLoewdin NoMayer NoPrintMOs 

%output print[p_atomdensfit] 2 end

%scf
  guess hcore
  maxiter 1000
  maxdisk 500000
  SCFMode Conventional
  lshift 0.100000
  hftyp rohf
  rohf_case sahf
  rohf_numop   2
  rohf_norb[1] 5
  rohf_nel[1]  1
end

%basis
  NewECP 57
    N_core 46
    lmax f
    s 3
      1       3.3099000000     91.9321770000  2
      2       1.6550000000     -3.7887640000  2
      3       4.0286000000     36.0100160000  2
    p 3
      1       2.8368000000     63.7594860000  2
      2       1.4184000000     -0.6479580000  2
      3       4.0286000000     36.0100160000  2
    d 3
      1       2.0213000000     36.1161730000  2
      2       1.0107000000      0.2191140000  2
      3       4.0286000000     36.0100160000  2
    f 1
      1       4.0286000000    -36.0100160000  2
  end
  NewGTO 57
    s 2 
     1       5.0873990000     -1.0479303431
     2       4.2709780000      2.0356668806
    s 1 
     1       2.1823656045      1.0000000000
    s 1 
     1       0.4896653378      1.0000000000
    s 1 
     1       0.2330167535      1.0000000000
    s 1 
     1       0.0557195231      1.0000000000
    s 1 
     1       0.0228547088      1.0000000000
    p 4 
     1       6.0000000000     -0.0332796858
     2       3.6808191615      0.4284807406
     3       2.3265462081     -1.0389154466
     4       0.6434262963      1.3382857902
    p 1 
     1       0.3358428196      1.0000000000
    p 1 
     1       0.1651905192      1.0000000000
    p 1 
     1       0.0354000000      1.0000000000
    d 3 
     1       1.2675288018     -0.3307279350
     2       0.8939534028      0.4732395193
     3       0.3309576734      0.8396218523
    d 1 
     1       0.1346137750      1.0000000000
    d 1 
     1       0.0514416298      1.0000000000
    f 1 
     1       0.2568300000      1.0000000000
  end
  NewAuxGTO 57
    S 1
     1 1310.72 1.0
    S 1
     1  655.36 1.0
    S 1
     1  327.68 1.0
    S 1
     1  163.84 1.0
    S 1
     1   81.82 1.0
    S 1
     1   40.96 1.0
    S 1
     1   20.48 1.0
    S 1
     1   10.24 1.0
    S 1
     1    5.12 1.0
    S 1
     1    2.56 1.0
    S 1
     1    1.28 1.0
    S 1
     1    0.64 1.0
    S 1
     1    0.32 1.0
    S 1
     1    0.16 1.0
    S 1
     1    0.08 1.0
    S 1
     1    0.04 1.0
    S 1
     1    0.02 1.0
    S 1
     1    0.01 1.0
  end
end

* xyz 0 2
57  0.0 0.0 0.0
*