# input to generate an atomic fitting density for Sm
# this file is used internally by ORCA
#
# atomic ground state (S=7): 1s2 2s2 2p6 3s2 3p6 4s2 3d10 4p6 5s2 4d10 5p6 4f6 6s2 
#
! RHF AllowRHF def2-SVP def2/J  NoMulliken NoLoewdin NoMayer NoPrintMOs 

%output print[p_atomdensfit] 2 end

%scf
  guess hcore
  maxiter 1000
  maxdisk 500000
  SCFMode Conventional
  lshift 0.600000
  hftyp rohf
  rohf_case sahf
  rohf_numop   2
  rohf_norb[1] 7
  rohf_nel[1]  6
end

%basis
  NewECP 62
    N_core 28
    lmax h
    s 1
      1      22.3444710000    572.9853320000  2
    p 1
      1      16.6945900000    272.3591450000  2
    d 1
      1      13.7277050000    115.2939000000  2
    f 1
      1      24.0590920000    -51.1083920000  2
    g 1
      1      20.1972490000    -25.4218850000  2
    h 1
      1       1.0000000000      0.0000000000  2
  end
  NewGTO 62
    s 5 
     1   70078.1710000000      0.0032840195
     2   10598.3840000000      0.0247147857
     3    2413.8660000000      0.1192742327
     4     677.4031000000      0.3681148829
     5     208.5073000000      0.6034470406
    s 1 
     1      39.3663000000      1.0000000000
    s 1 
     1      27.9875000000      1.0000000000
    s 1 
     1      14.3426000000      1.0000000000
    s 1 
     1       3.6128000000      1.0000000000
    s 1 
     1       1.8452000000      1.0000000000
    s 1 
     1       0.6875000000      1.0000000000
    s 1 
     1       0.3001000000      1.0000000000
    s 1 
     1       0.0539000000      1.0000000000
    s 1 
     1       0.0224000000      1.0000000000
    p 6 
     1    1545.8172951000     -0.0006500377
     2     358.3309752700     -0.0048417341
     3     105.4109500600     -0.0175481842
     4      24.3236928190     -0.3494156645
     5      15.3300167860      1.1286866065
     6       3.2777030287     -1.1981588028
    p 3 
     1       7.3871345024     -0.2183009262
     2       4.3824346508     -0.4834449049
     3       1.9204352599     -0.3709184767
    p 1 
     1       1.0521152834      1.0000000000
    p 1 
     1       0.5053232001      1.0000000000
    p 1 
     1       0.2274521957      1.0000000000
    p 1 
     1       0.0767024087      1.0000000000
    p 1 
     1       0.0272818492      1.0000000000
    d 6 
     1     398.0154000000      0.0006432266
     2     115.5466000000      0.0057221913
     3      41.8937000000      0.0257350059
     4      20.7743000000      0.0085312941
     5       7.5304000000      0.3862078064
     6       4.0454000000      0.6409656472
    d 1 
     1       2.1012000000      1.0000000000
    d 1 
     1       1.0105000000      1.0000000000
    d 1 
     1       0.3475000000      1.0000000000
    d 1 
     1       0.1083000000      1.0000000000
    f 5 
     1     127.1863000000      0.0049250695
     2      45.9396000000      0.0502922257
     3      20.6234000000      0.1834774073
     4       9.3855000000      0.3877531406
     5       4.2790000000      0.5613804090
    f 1 
     1       1.8883000000      1.0000000000
    f 1 
     1       0.7748000000      1.0000000000
    f 1 
     1       0.2776000000      1.0000000000
  end
  NewAuxGTO 62
    S 1
     1 1310.72 1.0
    S 1
     1  655.36 1.0
    S 1
     1  327.68 1.0
    S 1
     1  163.84 1.0
    S 1
     1   81.82 1.0
    S 1
     1   40.96 1.0
    S 1
     1   20.48 1.0
    S 1
     1   10.24 1.0
    S 1
     1    5.12 1.0
    S 1
     1    2.56 1.0
    S 1
     1    1.28 1.0
    S 1
     1    0.64 1.0
    S 1
     1    0.32 1.0
    S 1
     1    0.16 1.0
    S 1
     1    0.08 1.0
    S 1
     1    0.04 1.0
    S 1
     1    0.02 1.0
    S 1
     1    0.01 1.0
  end
end

* xyz 0 7
62  0.0 0.0 0.0
*

