# input to generate an atomic fitting density for Gd
# this file is used internally by ORCA
#
# atomic ground state (S=9): 1s2 2s2 2p6 3s2 3p6 4s2 3d10 4p6 5s2 4d10 5p6 6s2 4f7 5d1 
#
! RHF AllowRHF def2-SVP def2/J  NoMulliken NoLoewdin NoMayer NoPrintMOs 

%output print[p_atomdensfit] 2 end

%scf
  guess hcore
  maxiter 1000
  maxdisk 500000
  SCFMode Conventional
  lshift 0.500000
  hftyp rohf
  rohf_case sahf
  rohf_numop   4
  rohf_norb[1] 1,7,5
  rohf_nel[1]  2,7,1
end

%basis
  NewECP 64
    N_core 28
    lmax h
    s 1
      1      24.6021510000    637.2008690000  2
    p 1
      1      16.8892500000    261.6896010000  2
    d 1
      1      13.6433580000    106.8565330000  2
    f 1
      1      24.1269170000    -50.6835900000  2
    g 1
      1      22.1318870000    -27.5796300000  2
    h 1
      1       1.0000000000      0.0000000000  2
  end
  NewGTO 64
    s 5 
     1   70672.9820000000      0.0037601329
     2   10580.4200000000      0.0280199533
     3    2467.2196000000      0.1282623111
     4     710.3055000000      0.3781579583
     5     223.6934000000      0.5825420710
    s 1 
     1      42.8845000000      1.0000000000
    s 1 
     1      30.5952000000      1.0000000000
    s 1 
     1      15.7923000000      1.0000000000
    s 1 
     1       3.9598000000      1.0000000000
    s 1 
     1       2.0077000000      1.0000000000
    s 1 
     1       0.7494000000      1.0000000000
    s 1 
     1       0.3241000000      1.0000000000
    s 1 
     1       0.0578000000      1.0000000000
    s 1 
     1       0.0237000000      1.0000000000
    p 6 
     1    1547.5176828000     -0.0012782552
     2     341.0435536300     -0.0102446523
     3     100.4480881100     -0.0348782170
     4      25.6387242000     -0.3517567650
     5      15.8976303160      1.1370811933
     6       3.5643308647     -1.2278300145
    p 3 
     1       8.3793352896     -0.2194816090
     2       4.7567465018     -0.4843176212
     3       2.1155437701     -0.3703517727
    p 1 
     1       1.2378242468      1.0000000000
    p 1 
     1       0.5787498642      1.0000000000
    p 1 
     1       0.2529571524      1.0000000000
    p 1 
     1       0.0783457621      1.0000000000
    p 1 
     1       0.0283257554      1.0000000000
    d 6 
     1     406.0994000000      0.0008993023
     2     122.4205000000      0.0073330897
     3      46.3679000000      0.0304527108
     4      20.7289000000      0.0406814167
     5       7.9773000000      0.3957891319
     6       4.1175000000      0.6173991927
    d 1 
     1       2.0783000000      1.0000000000
    d 1 
     1       0.9888000000      1.0000000000
    d 1 
     1       0.3389000000      1.0000000000
    d 1 
     1       0.1037000000      1.0000000000
    f 5 
     1     128.7052000000      0.0059918917
     2      46.5647000000      0.0584624498
     3      20.8882000000      0.2021818215
     4       9.5233000000      0.3966949271
     5       4.3476000000      0.5341552622
    f 1 
     1       1.9241000000      1.0000000000
    f 1 
     1       0.7926000000      1.0000000000
    f 1 
     1       0.2855000000      1.0000000000
  end
  NewAuxGTO 64
    S 1
     1 1310.72 1.0
    S 1
     1  655.36 1.0
    S 1
     1  327.68 1.0
    S 1
     1  163.84 1.0
    S 1
     1   81.82 1.0
    S 1
     1   40.96 1.0
    S 1
     1   20.48 1.0
    S 1
     1   10.24 1.0
    S 1
     1    5.12 1.0
    S 1
     1    2.56 1.0
    S 1
     1    1.28 1.0
    S 1
     1    0.64 1.0
    S 1
     1    0.32 1.0
    S 1
     1    0.16 1.0
    S 1
     1    0.08 1.0
    S 1
     1    0.04 1.0
    S 1
     1    0.02 1.0
    S 1
     1    0.01 1.0
  end
end

* xyz 0 9
64  0.0 0.0 0.0
*