! RHF AllowRHF def2-SVP def2/J  NoMulliken NoLoewdin NoMayer NoPrintMOs 

%output print[p_atomdensfit] 2 end

%scf
  guess hcore
  maxiter 1000
  maxdisk 500000
  SCFMode Conventional
  lshift 0.300000
  hftyp rohf
  rohf_case sahf
  rohf_numop   3
  rohf_norb[1] 5,1
  rohf_nel[1]  2,2
end

%basis
  NewECP 40
    N_core 28
    lmax f
    s 4
      1       8.2000000000    150.2675911000  2
      2       4.0897278000     18.9762165000  2
      3       7.5400000000     21.0937760000  2
      4       3.7700000000      3.0806943000  2
    p 4
      1       7.1100000000     99.6221237000  2
      2       3.5967980000     14.1687333000  2
      3       7.5400000000     21.0937760000  2
      4       3.7700000000      3.0806943000  2
    d 4
      1       5.3500000000     35.0451235000  2
      2       2.4918215000      6.1112595000  2
      3       7.5400000000     21.0937760000  2
      4       3.7700000000      3.0806943000  2
    f 2
      1       7.5400000000    -21.0937760000  2
      2       3.7700000000     -3.0806943000  2
  end
  NewGTO 40
    s 2 
     1      11.0000000000     -1.2721918001
     2       9.5000000000      2.2605685160
    s 1 
     1       3.6383667759      1.0000000000
    s 1 
     1       0.7682202670      1.0000000000
    s 1 
     1       0.3403682404      1.0000000000
    s 1 
     1       0.0752612981      1.0000000000
    s 1 
     1       0.0301314047      1.0000000000
    p 4 
     1       8.6066305543      0.0424669011
     2       4.4400979958     -0.2226938137
     3       1.1281026946      0.5167410683
     4       0.5434607631      0.6022871253
    p 1 
     1       0.2502240605      1.0000000000
    p 1 
     1       0.0850000000      1.0000000000
    p 1 
     1       0.0290000000      1.0000000000
    d 3 
     1       4.5567957795     -0.0166279255
     2       1.2904939797      0.3555819112
     3       0.5164698722      0.7231156937
    d 1 
     1       0.1934979779      1.0000000000
    d 1 
     1       0.0673098100      1.0000000000
  end
  NewAuxGTO 40
    S 1
     1 1310.72 1.0
    S 1
     1  655.36 1.0
    S 1
     1  327.68 1.0
    S 1
     1  163.84 1.0
    S 1
     1   81.82 1.0
    S 1
     1   40.96 1.0
    S 1
     1   20.48 1.0
    S 1
     1   10.24 1.0
    S 1
     1    5.12 1.0
    S 1
     1    2.56 1.0
    S 1
     1    1.28 1.0
    S 1
     1    0.64 1.0
    S 1
     1    0.32 1.0
    S 1
     1    0.16 1.0
    S 1
     1    0.08 1.0
    S 1
     1    0.04 1.0
    S 1
     1    0.02 1.0
    S 1
     1    0.01 1.0
  end
end

* xyz 0 3
40  0.0 0.0 0.0
*
