# input to generate an atomic fitting density for Os
# this file is used internally by ORCA
#
# atomic ground state (S=5): 1s2 2s2 2p6 3s2 3p6 4s2 3d10 4p6 5s2 4d10 5p6 6s2 4f14 5d6 
#
! RHF AllowRHF def2-SVP def2/J  NoMulliken NoLoewdin NoMayer NoPrintMOs 

%output print[p_atomdensfit] 2 end

%scf
  guess hcore
  maxiter 1000
  maxdisk 500000
  SCFMode Conventional
  lshift 1.000000
  hftyp rohf
  rohf_case sahf
  rohf_numop   2
  rohf_norb[1] 5
  rohf_nel[1]  6
end

%basis
  NewECP 76
    N_core 60
    lmax f
    s 3
      1      13.8757539000    885.4057191000  2
      2       6.9378769000     25.9670401000  2
      3       2.7670751000    -18.9094570000  2
    p 3
      1      10.1937926000    320.0839019000  2
      2       5.0968962000     26.1487649000  2
      3       2.7670751000    -18.9094570000  2
    d 3
      1       7.0992385000    115.0448431000  2
      2       3.5496192000     13.6225746000  2
      3       2.7670751000    -18.9094570000  2
    f 1
      1       2.7670751000     18.9094570000  2
  end
  NewGTO 76
    s 3 
     1      30.0000000000      0.9881517203
     2      27.0000000000     -1.4700619919
     3      13.5247300050      1.4560441448
    s 1 
     1       5.2402883472      1.0000000000
    s 1 
     1       1.1306661245      1.0000000000
    s 1 
     1       0.5168996692      1.0000000000
    s 1 
     1       0.1322295354      1.0000000000
    s 1 
     1       0.0472203188      1.0000000000
    p 4 
     1      15.5000000000      0.3696785165
     2      14.0000000000     -0.5355179504
     3       5.5458290420      0.6871857809
     4       1.4139502215     -1.2522275443
    p 1 
     1       0.6813668676      1.0000000000
    p 1 
     1       0.3091145265      1.0000000000
    p 1 
     1       0.0520000000      1.0000000000
    d 4 
     1       8.2945059487      0.0525688853
     2       6.3060397430     -0.1241172847
     3       1.4890109110      0.4162938627
     4       0.6731539061      0.6676861931
    d 1 
     1       0.2859080522      1.0000000000
    d 1 
     1       0.1105801205      1.0000000000
    f 1 
     1       0.5506500000      1.0000000000
  end
  NewAuxGTO 76
    S 1
     1 1310.72 1.0
    S 1
     1  655.36 1.0
    S 1
     1  327.68 1.0
    S 1
     1  163.84 1.0
    S 1
     1   81.82 1.0
    S 1
     1   40.96 1.0
    S 1
     1   20.48 1.0
    S 1
     1   10.24 1.0
    S 1
     1    5.12 1.0
    S 1
     1    2.56 1.0
    S 1
     1    1.28 1.0
    S 1
     1    0.64 1.0
    S 1
     1    0.32 1.0
    S 1
     1    0.16 1.0
    S 1
     1    0.08 1.0
    S 1
     1    0.04 1.0
    S 1
     1    0.02 1.0
    S 1
     1    0.01 1.0
  end
end

* xyz 0 5
76  0.0 0.0 0.0
*