# input to generate an atomic fitting density for Re
# this file is used internally by ORCA
#
# atomic ground state (S=6): 1s2 2s2 2p6 3s2 3p6 4s2 3d10 4p6 5s2 4d10 5p6 6s2 4f14 5d5 
#
! RHF AllowRHF def2-SVP def2/J  NoMulliken NoLoewdin NoMayer NoPrintMOs 

%output print[p_atomdensfit] 2 end

%scf
  guess hcore
  maxiter 1000
  maxdisk 500000
  SCFMode Conventional
  lshift 0.500000
  hftyp rohf
  rohf_case sahf
  rohf_numop   2
  rohf_norb[1] 5
  rohf_nel[1]  5
end

%basis
  NewECP 75
    N_core 60
    lmax f
    s 3
      1      14.0993051000   1038.9515723000  2
      2       7.0496525000     29.5617383000  2
      3       2.5086506000    -16.4498523000  2
    p 3
      1      10.1077169000    339.5435096000  2
      2       5.0538583000     24.9136965000  2
      3       2.5086506000    -16.4498523000  2
    d 3
      1       6.8486179000    111.6996527000  2
      2       3.4243090000     12.6243293000  2
      3       2.5086506000    -16.4498523000  2
    f 1
      1       2.5086506000     16.4498523000  2
  end
  NewGTO 75
    s 3 
     1      30.0000000000      0.9973027955
     2      27.0000000000     -1.4589639639
     3      13.0780456840      1.4348422075
    s 1 
     1       5.0352712861      1.0000000000
    s 1 
     1       1.0482706438      1.0000000000
    s 1 
     1       0.4770877341      1.0000000000
    s 1 
     1       0.1222585725      1.0000000000
    s 1 
     1       0.0440074006      1.0000000000
    p 4 
     1      18.0000000000     -0.0654422411
     2      12.3186062500      0.2426593672
     3       5.3719234505     -0.7127910952
     4       1.3506646748      1.2524914706
    p 1 
     1       0.6621281681      1.0000000000
    p 1 
     1       0.3107138519      1.0000000000
    p 1 
     1       0.0700000000      1.0000000000
    d 4 
     1       7.7352877672      0.0616881431
     2       6.0949443610     -0.1303015252
     3       1.3871105497      0.4061349964
     4       0.6232402785      0.6762765945
    d 1 
     1       0.2651732855      1.0000000000
    d 1 
     1       0.1032109685      1.0000000000
    f 1 
     1       0.4898900000      1.0000000000
  end
  NewAuxGTO 75
    S 1
     1 1310.72 1.0
    S 1
     1  655.36 1.0
    S 1
     1  327.68 1.0
    S 1
     1  163.84 1.0
    S 1
     1   81.82 1.0
    S 1
     1   40.96 1.0
    S 1
     1   20.48 1.0
    S 1
     1   10.24 1.0
    S 1
     1    5.12 1.0
    S 1
     1    2.56 1.0
    S 1
     1    1.28 1.0
    S 1
     1    0.64 1.0
    S 1
     1    0.32 1.0
    S 1
     1    0.16 1.0
    S 1
     1    0.08 1.0
    S 1
     1    0.04 1.0
    S 1
     1    0.02 1.0
    S 1
     1    0.01 1.0
  end
end

* xyz 0 6
75  0.0 0.0 0.0
*