# input to generate an atomic fitting density for Te
# this file is used internally by ORCA
#
# atomic ground state (S=3): 1s2 2s2 2p6 3s2 3p6 4s2 3d10 4p6 5s2 4d10 5p4 
#
! RHF AllowRHF def2-SVP def2/J  NoMulliken NoLoewdin NoMayer NoPrintMOs 

%output print[p_atomdensfit] 2 end

%scf
  guess hcore
  maxiter 1000
  maxdisk 500000
  SCFMode Conventional
  lshift 1.000000
  hftyp rohf
  rohf_case sahf
  rohf_numop   2
  rohf_norb[1] 3
  rohf_nel[1]  4
end

%basis
  NewECP 52
    N_core 28
    lmax f
    s 4
      1      16.8144730000    281.0458430000  2
      2       8.7935260000     61.6206560000  2
      3      15.2061680000     15.7454500000  2
      4      15.2017020000     20.7424480000  2
    p 6
      1      14.8778010000     67.4494640000  2
      2      14.2697310000    134.9043040000  2
      3       8.7244350000     14.6895470000  2
      4       8.2915150000     29.4150630000  2
      5      15.2061680000     15.7454500000  2
      6      15.2017020000     20.7424480000  2
    d 6
      1      15.2050080000     35.4320570000  2
      2      15.2258480000     53.1356870000  2
      3       6.0717690000      9.0698020000  2
      4       5.8047600000     13.1223040000  2
      5      15.2061680000     15.7454500000  2
      6      15.2017020000     20.7424480000  2
    f 2
      1      15.2061680000    -15.7454500000  2
      2      15.2017020000    -20.7424480000  2
  end
  NewGTO 52
    s 5 
     1    6213.2001650000      0.0001923679
     2     920.8964001700      0.0013199349
     3     199.2804270800      0.0040102177
     4      24.7742330980     -0.0661328816
     5      14.8381991690      1.0611959986
    s 2 
     1      12.2787619540      0.6939918986
     2       6.3807845532      0.3228749241
    s 1 
     1       2.2228405205      1.0000000000
    s 1 
     1       1.0776043442      1.0000000000
    s 1 
     1       0.2813664902      1.0000000000
    s 1 
     1       0.1078157334      1.0000000000
    p 3 
     1     204.2940085200      0.0018228733
     2      18.2087593580      0.2705010304
     3       9.9211024302     -1.2341664049
    p 3 
     1       3.1441528685      0.3724115709
     2       1.7220884031      0.4781095923
     3       0.8909894571      0.2078652439
    p 1 
     1       0.3980471957      1.0000000000
    p 1 
     1       0.1653878524      1.0000000000
    p 1 
     1       0.0650826956      1.0000000000
    d 6 
     1     121.5105524900      0.0006945614
     2      32.9687943960      0.0067619716
     3      19.2498624510     -0.0097285571
     4       4.7198407254      0.2205408478
     5       2.3428061416      0.4701403007
     6       1.1135379412      0.4184078361
    d 1 
     1       0.4920006151      1.0000000000
    d 1 
     1       0.1600000000      1.0000000000
  end
  NewAuxGTO 52
    S 1
     1 1310.72 1.0
    S 1
     1  655.36 1.0
    S 1
     1  327.68 1.0
    S 1
     1  163.84 1.0
    S 1
     1   81.82 1.0
    S 1
     1   40.96 1.0
    S 1
     1   20.48 1.0
    S 1
     1   10.24 1.0
    S 1
     1    5.12 1.0
    S 1
     1    2.56 1.0
    S 1
     1    1.28 1.0
    S 1
     1    0.64 1.0
    S 1
     1    0.32 1.0
    S 1
     1    0.16 1.0
    S 1
     1    0.08 1.0
    S 1
     1    0.04 1.0
    S 1
     1    0.02 1.0
    S 1
     1    0.01 1.0
  end
end

* xyz 0 3
52  0.0 0.0 0.0
*