# input to generate an atomic fitting density for Ho
# this file is used internally by ORCA
#
# atomic ground state (S=4): 1s2 2s2 2p6 3s2 3p6 4s2 3d10 4p6 5s2 4d10 5p6 6s2 4f11 
#
! RHF AllowRHF def2-SVP def2/J  NoMulliken NoLoewdin NoMayer NoPrintMOs 

%output print[p_atomdensfit] 2 end

%scf
  guess hcore
  maxiter 1000
  maxdisk 500000
  SCFMode Conventional
  hftyp rohf
  rohf_case sahf
  rohf_numop   3
  rohf_norb[1] 1,7
  rohf_nel[1]  2,11
end

%basis
  NewECP 67
    N_core 28
    lmax h
    s 1
      1      28.3972570000    755.7031360000  2
    p 1
      1      17.4386330000    253.5519980000  2
    d 1
      1      12.4342120000     89.6356770000  2
    f 1
      1      25.3870100000    -55.4820360000  2
    g 1
      1      25.1885010000    -30.9911250000  2
    h 1
      1       1.0000000000      0.0000000000  2
  end
  NewGTO 67
    s 5 
     1   86373.9550000000      0.0034641822
     2   13014.2000000000      0.0261146046
     3    2974.2417000000      0.1243996728
     4     840.7710000000      0.3714669273
     5     258.1223000000      0.5959725845
    s 1 
     1      49.7648000000      1.0000000000
    s 1 
     1      35.5463000000      1.0000000000
    s 1 
     1      18.1290000000      1.0000000000
    s 1 
     1       4.4456000000      1.0000000000
    s 1 
     1       2.2170000000      1.0000000000
    s 1 
     1       0.8329000000      1.0000000000
    s 1 
     1       0.3544000000      1.0000000000
    s 1 
     1       0.0597000000      1.0000000000
    s 1 
     1       0.0244000000      1.0000000000
    p 6 
     1    1332.9863082000     -0.0031009699
     2     314.4068793100     -0.0210512867
     3      97.9117194350     -0.0628507444
     4      27.9099616030     -0.3002118380
     5      16.5450973110      1.0608710803
     6       3.9331568107     -1.2610096744
    p 3 
     1      11.7341126790     -0.2679606608
     2       5.7259586736     -0.4750307971
     3       2.1474251528     -0.3680662209
    p 1 
     1       1.9836134634      1.0000000000
    p 1 
     1       0.8459926388      1.0000000000
    p 1 
     1       0.3590466282      1.0000000000
    p 1 
     1       0.1278058205      1.0000000000
    p 1 
     1       0.0386239785      1.0000000000
    d 6 
     1     454.4404000000      0.0013880511
     2     137.4123000000      0.0114093894
     3      52.6936000000      0.0467844919
     4      22.6037000000      0.1001586426
     5       8.7808000000      0.3809294574
     6       4.3752000000      0.5957437311
    d 1 
     1       2.1022000000      1.0000000000
    d 1 
     1       0.9073000000      1.0000000000
    d 1 
     1       0.3172000000      1.0000000000
    d 1 
     1       0.0975000000      1.0000000000
    f 5 
     1     136.4678000000      0.0074743782
     2      49.5692000000      0.0692401818
     3      22.2471000000      0.2232423851
     4      10.1359000000      0.4035649755
     5       4.6186000000      0.5057438703
    f 1 
     1       2.0375000000      1.0000000000
    f 1 
     1       0.8343000000      1.0000000000
    f 1 
     1       0.2979000000      1.0000000000
  end
  NewAuxGTO 67
    S 1
     1 1310.72 1.0
    S 1
     1  655.36 1.0
    S 1
     1  327.68 1.0
    S 1
     1  163.84 1.0
    S 1
     1   81.82 1.0
    S 1
     1   40.96 1.0
    S 1
     1   20.48 1.0
    S 1
     1   10.24 1.0
    S 1
     1    5.12 1.0
    S 1
     1    2.56 1.0
    S 1
     1    1.28 1.0
    S 1
     1    0.64 1.0
    S 1
     1    0.32 1.0
    S 1
     1    0.16 1.0
    S 1
     1    0.08 1.0
    S 1
     1    0.04 1.0
    S 1
     1    0.02 1.0
    S 1
     1    0.01 1.0
  end
end

* xyz 0 4
67  0.0 0.0 0.0
*