# input to generate an atomic fitting density for Eu
# this file is used internally by ORCA
#
# atomic ground state (S=8): 1s2 2s2 2p6 3s2 3p6 4s2 3d10 4p6 5s2 4d10 5p6 4f7 6s2 
#
! RHF AllowRHF def2-SVP def2/J  NoMulliken NoLoewdin NoMayer NoPrintMOs 

%output print[p_atomdensfit] 2 end

%scf
  guess hcore
  maxiter 1000
  maxdisk 500000
  SCFMode Conventional
  lshift 0.300000
  hftyp rohf
  rohf_case sahf
  rohf_numop   2
  rohf_norb[1] 7
  rohf_nel[1]  7
end

%basis
  NewECP 63
    N_core 28
    lmax h
    s 1
      1      23.4713840000    607.6593310000  2
    p 1
      1      16.7724790000    264.3854760000  2
    d 1
      1      13.9813430000    115.3813750000  2
    f 1
      1      23.9628880000    -49.4007940000  2
    g 1
      1      21.2324580000    -26.7482730000  2
    h 1
      1       1.0000000000      0.0000000000  2
  end
  NewGTO 63
    s 5 
     1   70059.4200000000      0.0035068762
     2   10776.2350000000      0.0255604276
     3    2482.4901000000      0.1215476060
     4     702.1526000000      0.3689812217
     5     216.7926000000      0.6000373639
    s 1 
     1      41.4950000000      1.0000000000
    s 1 
     1      29.4969000000      1.0000000000
    s 1 
     1      15.0309000000      1.0000000000
    s 1 
     1       3.7772000000      1.0000000000
    s 1 
     1       1.9219000000      1.0000000000
    s 1 
     1       0.7131000000      1.0000000000
    s 1 
     1       0.3097000000      1.0000000000
    s 1 
     1       0.0549000000      1.0000000000
    s 1 
     1       0.0227000000      1.0000000000
    p 6 
     1    1545.4788969000     -0.0009825248
     2     348.7976221300     -0.0076867969
     3     105.5294352900     -0.0262349741
     4      25.6179974540     -0.3472139479
     5      15.7844303300      1.1193353458
     6       3.3852871239     -1.2034900506
    p 3 
     1       7.4940301111     -0.2179609313
     2       4.5438093966     -0.4824548283
     3       2.0144742222     -0.3693746377
    p 1 
     1       1.1083886524      1.0000000000
    p 1 
     1       0.5114264888      1.0000000000
    p 1 
     1       0.2256141529      1.0000000000
    p 1 
     1       0.0760001815      1.0000000000
    p 1 
     1       0.0271170305      1.0000000000
    d 6 
     1     389.0841000000      0.0007655981
     2     117.7602000000      0.0061047131
     3      44.9869000000      0.0246023665
     4      22.8599000000      0.0178166438
     5       7.8331000000      0.3876965927
     6       4.1134000000      0.6383883987
    d 1 
     1       2.0999000000      1.0000000000
    d 1 
     1       1.0043000000      1.0000000000
    d 1 
     1       0.3422000000      1.0000000000
    d 1 
     1       0.1051000000      1.0000000000
    f 5 
     1     128.2341000000      0.0053408106
     2      46.2685000000      0.0535219725
     3      20.7366000000      0.1921599943
     4       9.4479000000      0.3927991494
     5       4.3149000000      0.5479509450
    f 1 
     1       1.9121000000      1.0000000000
    f 1 
     1       0.7897000000      1.0000000000
    f 1 
     1       0.2859000000      1.0000000000
  end
  NewAuxGTO 63
    S 1
     1 1310.72 1.0
    S 1
     1  655.36 1.0
    S 1
     1  327.68 1.0
    S 1
     1  163.84 1.0
    S 1
     1   81.82 1.0
    S 1
     1   40.96 1.0
    S 1
     1   20.48 1.0
    S 1
     1   10.24 1.0
    S 1
     1    5.12 1.0
    S 1
     1    2.56 1.0
    S 1
     1    1.28 1.0
    S 1
     1    0.64 1.0
    S 1
     1    0.32 1.0
    S 1
     1    0.16 1.0
    S 1
     1    0.08 1.0
    S 1
     1    0.04 1.0
    S 1
     1    0.02 1.0
    S 1
     1    0.01 1.0
  end
end

* xyz 0 8
63  0.0 0.0 0.0
*