! RHF AllowRHF def2-SVP def2/J  NoMulliken NoLoewdin NoMayer NoPrintMOs 

%output print[p_atomdensfit] 2 end

%scf
  guess hcore
  maxiter 1000
  maxdisk 500000
  SCFMode Conventional
  lshift 0.600000
  hftyp rohf
  rohf_case sahf
  rohf_numop   2
  rohf_norb[1] 5
  rohf_nel[1]  4
end

%basis
  NewECP 42
    N_core 28
    lmax f
    s 4
      1       9.7145938000    180.1031085000  2
      2       4.6805004000     24.9972279000  2
      3       9.4500000000     24.8051771000  2
      4       4.7200000000      4.1537815000  2
    p 4
      1       8.1421366000    123.7727523000  2
      2       4.6259863000     19.5302280000  2
      3       9.4500000000     24.8051771000  2
      4       4.7200000000      4.1537815000  2
    d 4
      1       6.6184148000     48.3750223000  2
      2       3.2487516000      8.8920527000  2
      3       9.4500000000     24.8051771000  2
      4       4.7200000000      4.1537815000  2
    f 2
      1       9.4500000000    -24.8051771000  2
      2       4.7200000000     -4.1537815000  2
  end
  NewGTO 42
    s 2 
     1      14.0000000000     -2.0770233737
     2      12.5000000000      3.0616178399
    s 1 
     1       4.0921501803      1.0000000000
    s 1 
     1       0.9705360259      1.0000000000
    s 1 
     1       0.4421762017      1.0000000000
    s 1 
     1       0.0929150243      1.0000000000
    s 1 
     1       0.0350163144      1.0000000000
    p 4 
     1       8.8931117915      0.0830010811
     2       5.4689112270     -0.2792276027
     3       1.3548473007      0.5492197283
     4       0.6549486746      0.5789213489
    p 1 
     1       0.3042819747      1.0000000000
    p 1 
     1       0.1000000000      1.0000000000
    p 1 
     1       0.0330000000      1.0000000000
    d 3 
     1       5.0044445497     -0.0359172347
     2       1.7736823324      0.3487122377
     3       0.7695059170      0.7275979769
    d 1 
     1       0.3153087894      1.0000000000
    d 1 
     1       0.1175437439      1.0000000000
  end
  NewAuxGTO 42
    S 1
     1 1310.72 1.0
    S 1
     1  655.36 1.0
    S 1
     1  327.68 1.0
    S 1
     1  163.84 1.0
    S 1
     1   81.82 1.0
    S 1
     1   40.96 1.0
    S 1
     1   20.48 1.0
    S 1
     1   10.24 1.0
    S 1
     1    5.12 1.0
    S 1
     1    2.56 1.0
    S 1
     1    1.28 1.0
    S 1
     1    0.64 1.0
    S 1
     1    0.32 1.0
    S 1
     1    0.16 1.0
    S 1
     1    0.08 1.0
    S 1
     1    0.04 1.0
    S 1
     1    0.02 1.0
    S 1
     1    0.01 1.0
  end
end

* xyz 0 5
42  0.0 0.0 0.0
*
