# input to generate an atomic fitting density for Nb
# this file is used internally by ORCA
#
# atomic ground state (S=4): 1s2 2s2 2p6 3s2 3p6 4s2 3d10 4p6 5s2 4d3 
#
! RHF AllowRHF def2-SVP def2/J  NoMulliken NoLoewdin NoMayer NoPrintMOs 

%output print[p_atomdensfit] 2 end

%scf
  guess hcore
  maxiter 1000
  maxdisk 500000
  SCFMode Conventional
  lshift 0.500000
  hftyp rohf
  rohf_case sahf
  rohf_numop   2
  rohf_norb[1] 5
  rohf_nel[1]  5
end

%basis
  NewECP 41
    N_core 28
    lmax f
    s 4
      1       8.9000000000    165.1791435000  2
      2       4.4300000000     21.9929744000  2
      3       8.4900000000     22.9295500000  2
      4       4.2500000000      3.6663099000  2
    p 4
      1       7.7700000000    111.7944145000  2
      2       3.9600000000     16.6334833000  2
      3       8.4900000000     22.9295500000  2
      4       4.2500000000      3.6663099000  2
    d 4
      1       6.0500000000     38.1122488000  2
      2       2.8400000000      8.0391673000  2
      3       8.4900000000     22.9295500000  2
      4       4.2500000000      3.6663099000  2
    f 2
      1       8.4900000000    -22.9295500000  2
      2       4.2500000000     -3.6663099000  2
  end
  NewGTO 41
    s 2 
     1      12.0000000000     -1.4879777371
     2      10.5000000000      2.4756156222
    s 1 
     1       3.9276062854      1.0000000000
    s 1 
     1       0.8597654326      1.0000000000
    s 1 
     1       0.3907408750      1.0000000000
    s 1 
     1       0.0863872599      1.0000000000
    s 1 
     1       0.0329062003      1.0000000000
    p 4 
     1       9.2056285646      0.0476946739
     2       4.8679632125     -0.2343872999
     3       1.2442155792      0.5292589459
     4       0.6039059031      0.5932483841
    p 1 
     1       0.2796767555      1.0000000000
    p 1 
     1       0.0900000000      1.0000000000
    p 1 
     1       0.0300000000      1.0000000000
    d 3 
     1       4.6170975867     -0.0229688910
     2       1.5663438480      0.3447464799
     3       0.6695242583      0.7275446499
    d 1 
     1       0.2714094687      1.0000000000
    d 1 
     1       0.1005442659      1.0000000000
  end
  NewAuxGTO 41
    S 1
     1 1310.72 1.0
    S 1
     1  655.36 1.0
    S 1
     1  327.68 1.0
    S 1
     1  163.84 1.0
    S 1
     1   81.82 1.0
    S 1
     1   40.96 1.0
    S 1
     1   20.48 1.0
    S 1
     1   10.24 1.0
    S 1
     1    5.12 1.0
    S 1
     1    2.56 1.0
    S 1
     1    1.28 1.0
    S 1
     1    0.64 1.0
    S 1
     1    0.32 1.0
    S 1
     1    0.16 1.0
    S 1
     1    0.08 1.0
    S 1
     1    0.04 1.0
    S 1
     1    0.02 1.0
    S 1
     1    0.01 1.0
  end
end

* xyz 0 6
41  0.0 0.0 0.0
*

