 # input to generate an atomic fitting density for Au
 # this file is used internally by ORCA
 #
 # atomic ground state (S=2): 1s2 2s2 2p6 3s2 3p6 4s2 3d10 4p6 5s2 4d10 5p6 6s1 4f14 5d10 
 #
 ! RHF AllowRHF def2-SVP def2/J  NoMulliken NoLoewdin NoMayer NoPrintMOs 
 
 %output print[p_atomdensfit] 2 end
 
 %scf
   guess hcore
   maxiter 1000
   maxdisk 500000
   SCFMode Conventional
   lshift 1.000000
   hftyp rohf
   rohf_case sahf
   rohf_numop   2
   rohf_norb[1] 1
   rohf_nel[1]  1
 end
 
 %basis
   NewECP 79
     N_core 60
     lmax f
     s 4
       1      13.2051000000    426.8466792000  2
       2       6.6025500000     37.0070829000  2
       3       4.7898200000    -30.4900889000  2
       4       2.3949100000     -5.1710738000  2
     p 4
       1      10.4520200000    261.1995804000  2
       2       5.2260100000     26.9624960000  2
       3       4.7898200000    -30.4900889000  2
       4       2.3949100000     -5.1710738000  2
     d 4
       1       7.8511000000    124.7906656000  2
       2       3.9255500000     16.3007257000  2
       3       4.7898200000    -30.4900889000  2
       4       2.3949100000     -5.1710738000  2
     f 2
       1       4.7898200000     30.4900889000  2
       2       2.3949100000      5.1710738000  2
   end
   NewGTO 79
     s 3 
      1      30.0000000000      0.7878815859
      2      27.0000000000     -1.2632352720
      3      14.7468243310      1.4544194336
     s 1 
      1       5.6017248938      1.0000000000
     s 1 
      1       1.3874162443      1.0000000000
     s 1 
      1       0.6292303196      1.0000000000
     s 1 
      1       0.1402751761      1.0000000000
     s 1 
      1       0.0493794138      1.0000000000
     p 4 
      1      15.5000000000      0.3283807140
      2      14.0000000000     -0.5168081730
      3       6.4227368205      0.6886210803
      4       1.6595601681     -1.2538261785
     p 1 
      1       0.7940291399      1.0000000000
     p 1 
      1       0.3512515540      1.0000000000
     p 1 
      1       0.0450000000      1.0000000000
     d 4 
      1       9.5524098656      0.0556208267
      2       7.2698886937     -0.1298067767
      3       1.7746496789      0.4398380516
      4       0.7996054106      0.6483375306
     d 1 
      1       0.3325227937      1.0000000000
     d 1 
      1       0.1244513311      1.0000000000
     f 1 
      1       0.7248200000      1.0000000000
   end
   NewAuxGTO 79
     S 1
      1 1310.72 1.0
     S 1
      1  655.36 1.0
     S 1
      1  327.68 1.0
     S 1
      1  163.84 1.0
     S 1
      1   81.82 1.0
     S 1
      1   40.96 1.0
     S 1
      1   20.48 1.0
     S 1
      1   10.24 1.0
     S 1
      1    5.12 1.0
     S 1
      1    2.56 1.0
     S 1
      1    1.28 1.0
     S 1
      1    0.64 1.0
     S 1
      1    0.32 1.0
     S 1
      1    0.16 1.0
     S 1
      1    0.08 1.0
     S 1
      1    0.04 1.0
     S 1
      1    0.02 1.0
     S 1
      1    0.01 1.0
   end
 end
 
 * xyz 0 2
 79  0.0 0.0 0.0
 *