# input to generate an atomic fitting density for Xe
# this file is used internally by ORCA
#
# atomic ground state (S=1): 1s2 2s2 2p6 3s2 3p6 4s2 3d10 4p6 5s2 4d10 5p6 
#
! RHF AllowRHF def2-SVP def2/J  NoMulliken NoLoewdin NoMayer NoPrintMOs 

%output print[p_atomdensfit] 2 end

%scf
  guess hcore
  maxiter 1000
  maxdisk 500000
  SCFMode Conventional
  lshift 1.000000
  hftyp rohf
  rohf_case sahf
  rohf_numop   2
  rohf_norb[1] 3
  rohf_nel[1]  6
end

%basis
  NewECP 54
    N_core 28
    lmax f
    s 7
      1      40.0051840000     49.9979620000  2
      2      17.8122140000    281.0133030000  2
      3       9.3041500000     61.5382550000  2
      4      20.8815570000     23.0892950000  2
      5      20.7834430000     30.0744750000  2
      6       5.2533890000      0.2882270000  2
      7       5.3611880000      0.3869240000  2
    p 8
      1      15.7017720000     67.4391420000  2
      2      15.2586080000    134.8747110000  2
      3       9.2921840000     14.6633000000  2
      4       8.5590030000     29.3547300000  2
      5      20.8815570000     23.0892950000  2
      6      20.7834430000     30.0744750000  2
      7       5.2533890000      0.2882270000  2
      8       5.3611880000      0.3869240000  2
    d 10
      1      15.1856000000     35.4369080000  2
      2      14.2845000000     53.1957720000  2
      3       7.1218890000      9.0462320000  2
      4       6.9919630000     13.2236810000  2
      5       0.6239460000      0.0848530000  2
      6       0.6472840000      0.0441550000  2
      7      20.8815570000     23.0892950000  2
      8      20.7834430000     30.0744750000  2
      9       5.2533890000      0.2882270000  2
     10       5.3611880000      0.3869240000  2
    f 4
      1      20.8815570000    -23.0892950000  2
      2      20.7834430000    -30.0744750000  2
      3       5.2533890000     -0.2882270000  2
      4       5.3611880000     -0.3869240000  2
  end
  NewGTO 54
    s 5 
     1    6420.2481656000      0.0005803743
     2     983.5453066400      0.0037590265
     3     219.4388136400      0.0106482436
     4      23.0125878070     -0.3399766589
     5      18.0483244900      1.3305328819
    s 2 
     1      11.7525501630      0.6426392401
     2       6.2390917199      0.3743679621
    s 1 
     1       2.6257211320      1.0000000000
    s 1 
     1       1.2905042943      1.0000000000
    s 1 
     1       0.3620418506      1.0000000000
    s 1 
     1       0.1406988809      1.0000000000
    p 3 
     1     193.8143254500      0.0040702352
     2      21.7252280860      0.2448817432
     3       9.8891605641     -1.1935854566
    p 4 
     1      13.9606838260     -0.0377633548
     2       4.0928947097      0.2717857050
     3       2.2546815460      0.5382425559
     4       1.1546596184      0.2635338256
    p 1 
     1       0.5232192313      1.0000000000
    p 1 
     1       0.2194556980      1.0000000000
    p 1 
     1       0.0861589968      1.0000000000
    d 6 
     1     135.6030003800      0.0008766390
     2      38.7270626920      0.0065204533
     3      15.3773280890     -0.0099344899
     4       5.2602537686      0.2450969609
     5       2.6590627424      0.4757695225
     6       1.2938205124      0.3857760473
    d 1 
     1       0.5805083014      1.0000000000
    d 1 
     1       0.1800000000      1.0000000000
  end
  NewAuxGTO 54
    S 1
     1 1310.72 1.0
    S 1
     1  655.36 1.0
    S 1
     1  327.68 1.0
    S 1
     1  163.84 1.0
    S 1
     1   81.82 1.0
    S 1
     1   40.96 1.0
    S 1
     1   20.48 1.0
    S 1
     1   10.24 1.0
    S 1
     1    5.12 1.0
    S 1
     1    2.56 1.0
    S 1
     1    1.28 1.0
    S 1
     1    0.64 1.0
    S 1
     1    0.32 1.0
    S 1
     1    0.16 1.0
    S 1
     1    0.08 1.0
    S 1
     1    0.04 1.0
    S 1
     1    0.02 1.0
    S 1
     1    0.01 1.0
  end
end

* xyz 0 1
54  0.0 0.0 0.0
*