# input to generate an atomic fitting density for Po
# this file is used internally by ORCA
#
# atomic ground state (S=3): 1s2 2s2 2p6 3s2 3p6 4s2 3d10 4p6 5s2 4d10 5p6 6s2 4f14 5d10 6p4 
#
! RHF AllowRHF def2-SVP def2/J  NoMulliken NoLoewdin NoMayer NoPrintMOs 

%output print[p_atomdensfit] 2 end

%scf
  guess hcore
  maxiter 1000
  maxdisk 500000
  SCFMode Conventional
  lshift 1.000000
  hftyp rohf
  rohf_case sahf
  rohf_numop   2
  rohf_norb[1] 3
  rohf_nel[1]  4
end

%basis
  NewECP 84
    N_core 60
    lmax f
    s 6
      1      13.2772270000    283.2447060000  2
      2       8.3995180000     62.3964610000  2
      3       5.0132700000    -17.4282950000  2
      4       4.9846400000    -23.3803530000  2
      5       1.3267600000     -0.1633920000  2
      6       1.5287580000     -0.3245660000  2
    p 8
      1      10.6656820000     71.9917160000  2
      2       9.2837530000    143.9718710000  2
      3       6.8727490000      4.9496150000  2
      4       6.3261500000      9.7404990000  2
      5       5.0132700000    -17.4282950000  2
      6       4.9846400000    -23.3803530000  2
      7       1.3267600000     -0.1633920000  2
      8       1.5287580000     -0.3245660000  2
    d 8
      1       8.2148660000     36.3783830000  2
      2       8.0086960000     54.5627150000  2
      3       5.0552270000      9.8894990000  2
      4       4.7825530000     14.6938770000  2
      5       5.0132700000    -17.4282950000  2
      6       4.9846400000    -23.3803530000  2
      7       1.3267600000     -0.1633920000  2
      8       1.5287580000     -0.3245660000  2
    f 4
      1       5.0132700000     17.4282950000  2
      2       4.9846400000     23.3803530000  2
      3       1.3267600000      0.1633920000  2
      4       1.5287580000      0.3245660000  2
  end
  NewGTO 84
    s 5 
     1    6744.8211765000      0.0002667131
     2     744.4189253200      0.0024726498
     3     131.0402930900      0.0076510921
     4      19.6620210300     -2.2326123855
     5      16.6230256090      3.1910959564
    s 2 
     1      23.0940029650     -0.0760848894
     2       6.9707398381      1.0578437560
    s 1 
     1       1.8497377593      1.0000000000
    s 1 
     1       0.9308299926      1.0000000000
    s 1 
     1       0.2867302646      1.0000000000
    s 1 
     1       0.1097921217      1.0000000000
    p 3 
     1     253.9902449700      0.0003988866
     2       9.8712718748      1.1685916546
     3       7.4489893496     -2.1066457855
    p 4 
     1       8.9027395407     -0.1226383198
     2       5.7414667465      0.2337889888
     3       1.9896329823      0.5886127763
     4       0.9470321082      0.3514926778
    p 1 
     1       0.3707113628      1.0000000000
    p 1 
     1       0.1555470609      1.0000000000
    p 1 
     1       0.0611737208      1.0000000000
    d 6 
     1      67.9430770460      0.0005410406
     2      14.9142198940      0.0112336718
     3       7.2973948305     -0.0773565344
     4       2.6826784400      0.2902640400
     5       1.4374143009      0.4722837553
     6       0.7390379742      0.3594736157
    d 1 
     1       0.3583815328      1.0000000000
    d 1 
     1       0.1500000000      1.0000000000
    f 1 
     1       0.3327500000      1.0000000000
    f 1 
     1       1.4000000000      1.0000000000
  end
  NewAuxGTO 84
    S 1
     1 1310.72 1.0
    S 1
     1  655.36 1.0
    S 1
     1  327.68 1.0
    S 1
     1  163.84 1.0
    S 1
     1   81.82 1.0
    S 1
     1   40.96 1.0
    S 1
     1   20.48 1.0
    S 1
     1   10.24 1.0
    S 1
     1    5.12 1.0
    S 1
     1    2.56 1.0
    S 1
     1    1.28 1.0
    S 1
     1    0.64 1.0
    S 1
     1    0.32 1.0
    S 1
     1    0.16 1.0
    S 1
     1    0.08 1.0
    S 1
     1    0.04 1.0
    S 1
     1    0.02 1.0
    S 1
     1    0.01 1.0
  end
end

* xyz 0 3
84  0.0 0.0 0.0
*
