# input to generate an atomic fitting density for Cd
# this file is used internally by ORCA
#
# atomic ground state (S=1): 1s2 2s2 2p6 3s2 3p6 4s2 3d10 4p6 5s2 4d10 
#
! RHF AllowRHF def2-SVP def2/J  NoMulliken NoLoewdin NoMayer NoPrintMOs 

%output print[p_atomdensfit] 2 end

%scf
  guess hcore
  maxiter 1000
  maxdisk 500000
  SCFMode Conventional
  lshift 1.000000
  hftyp rohf
  rohf_case sahf
  rohf_numop   2
  rohf_norb[1] 5
  rohf_nel[1]  10
end

%basis
  NewECP 48
    N_core 28
    lmax f
    s 4
      1      13.8358689000    270.0094832000  2
      2       6.8572704000     38.7673080000  2
      3      15.1847957000     35.4766256000  2
      4       7.5923978000      5.6176768000  2
    p 4
      1      12.4049710000    193.8296294000  2
      2       6.5677995000     31.8965252000  2
      3      15.1847957000     35.4766256000  2
      4       7.5923978000      5.6176768000  2
    d 4
      1      10.8969253000     79.1936470000  2
      2       4.6411649000     13.2308267000  2
      3      15.1847957000     35.4766256000  2
      4       7.5923978000      5.6176768000  2
    f 2
      1      15.1847957000    -35.4766256000  2
      2       7.5923978000     -5.6176768000  2
  end
  NewGTO 48
    s 2 
     1      20.0000000000     -0.8705577278
     2      16.3090516610      1.8579264276
    s 1 
     1       6.4512709901      1.0000000000
    s 1 
     1       1.5350047390      1.0000000000
    s 1 
     1       0.6898363152      1.0000000000
    s 1 
     1       0.1347572098      1.0000000000
    s 1 
     1       0.0474168745      1.0000000000
    p 4 
     1      14.0006814040      0.0799187426
     2       8.3094019872     -0.2930121128
     3       2.2020058122      0.5671292057
     4       1.0779246137      0.5729057138
    p 1 
     1       0.5011187985      1.0000000000
    p 1 
     1       0.1600000000      1.0000000000
    p 1 
     1       0.0516000000      1.0000000000
    d 4 
     1      30.3807897930      0.0049711478
     2      11.4745515780     -0.0217084208
     3       3.0507394903      0.3812816359
     4       1.3622028524      0.6859170380
    d 1 
     1       0.5639940989      1.0000000000
    d 1 
     1       0.2091668654      1.0000000000
  end
  NewAuxGTO 48
    S 1
     1 1310.72 1.0
    S 1
     1  655.36 1.0
    S 1
     1  327.68 1.0
    S 1
     1  163.84 1.0
    S 1
     1   81.82 1.0
    S 1
     1   40.96 1.0
    S 1
     1   20.48 1.0
    S 1
     1   10.24 1.0
    S 1
     1    5.12 1.0
    S 1
     1    2.56 1.0
    S 1
     1    1.28 1.0
    S 1
     1    0.64 1.0
    S 1
     1    0.32 1.0
    S 1
     1    0.16 1.0
    S 1
     1    0.08 1.0
    S 1
     1    0.04 1.0
    S 1
     1    0.02 1.0
    S 1
     1    0.01 1.0
  end
end

* xyz 0 1
48  0.0 0.0 0.0
*