! RHF AllowRHF def2-SVP def2/J  NoMulliken NoLoewdin NoMayer

%output print[p_atomdensfit] 2 end

%scf
  guess hcore
  maxiter 1000
  maxdisk 500000
  SCFMode Conventional
  lshift 1.000000
  hftyp rohf
  rohf_case sahf
  rohf_numop   2
  rohf_norb[1] 1
  rohf_nel[1]  2
end

%basis
  NewECP 38
    N_core 28
    lmax f
    s 3
      1       7.4000740000    135.4794300000  2
      2       3.6063790000     17.5344630000  2
      3       4.6339750000     15.8059920000  2
    p 3
      1       6.4848680000     88.3597090000  2
      2       3.2880530000     15.3943720000  2
      3       4.6339750000     15.8059920000  2
    d 3
      1       4.6228410000     29.8889870000  2
      2       2.2469040000      6.6594140000  2
      3       4.6339750000     15.8059920000  2
    f 1
      1       4.6339750000    -15.8059920000  2
  end
  NewGTO 38
    s 2 
     1      10.0000000000     -1.1848404950
     2       8.5000000000      2.1720592275
    s 1 
     1       3.0057048856      1.0000000000
    s 1 
     1       0.6116128765      1.0000000000
    s 1 
     1       0.2739384122      1.0000000000
    s 1 
     1       0.0574355646      1.0000000000
    s 1 
     1       0.0233381987      1.0000000000
    p 4 
     1       7.5883077869      0.0336810436
     2       3.6731307392     -0.2049237030
     3       0.9049661845      0.4913608597
     4       0.4331025641      0.6201204803
    p 1 
     1       0.2022216896      1.0000000000
    p 1 
     1       0.0720000000      1.0000000000
    p 1 
     1       0.0250000000      1.0000000000
    d 3 
     1       3.6180810000     -0.0208510059
     2       0.9966560000      0.3004868732
     3       0.3907350000      0.7742753212
    d 1 
     1       0.1227700000      1.0000000000
    d 1 
     1       0.0366550000      1.0000000000
  end
  NewAuxGTO 38
    S 1
     1 1310.72 1.0
    S 1
     1  655.36 1.0
    S 1
     1  327.68 1.0
    S 1
     1  163.84 1.0
    S 1
     1   81.82 1.0
    S 1
     1   40.96 1.0
    S 1
     1   20.48 1.0
    S 1
     1   10.24 1.0
    S 1
     1    5.12 1.0
    S 1
     1    2.56 1.0
    S 1
     1    1.28 1.0
    S 1
     1    0.64 1.0
    S 1
     1    0.32 1.0
    S 1
     1    0.16 1.0
    S 1
     1    0.08 1.0
    S 1
     1    0.04 1.0
    S 1
     1    0.02 1.0
    S 1
     1    0.01 1.0
  end
end

* xyz 0 1
38  0.0 0.0 0.0
*