# input to generate an atomic fitting density for Ir
# this file is used internally by ORCA
#
# atomic ground state (S=4): 1s2 2s2 2p6 3s2 3p6 4s2 3d10 4p6 5s2 4d10 5p6 6s2 4f14 5d7 
#
! RHF AllowRHF def2-SVP def2/J  NoMulliken NoLoewdin NoMayer NoPrintMOs 

%output print[p_atomdensfit] 2 end

%scf
  guess hcore
  maxiter 1000
  maxdisk 500000
  SCFMode Conventional
  lshift 1.000000
  hftyp rohf
  rohf_case sahf
  rohf_numop   2
  rohf_norb[1] 5
  rohf_nel[1]  7
end

%basis
  NewECP 77
    N_core 60
    lmax f
    s 3
      1      13.6522026000    732.2691998000  2
      2       6.8261013000     26.4847209000  2
      3       3.0340719000    -21.5310311000  2
    p 3
      1      10.2798684000    299.4894736000  2
      2       5.1399341000     26.4662335000  2
      3       3.0340719000    -21.5310311000  2
    d 3
      1       7.3498590000    124.4575945000  2
      2       3.6749295000     14.0359952000  2
      3       3.0340719000    -21.5310311000  2
    f 1
      1       3.0340719000     21.5310311000  2
  end
  NewGTO 77
    s 3 
     1      30.0000000000      0.9616390282
     2      27.0000000000     -1.4589919579
     3      13.9619739110      1.4725632748
    s 1 
     1       5.3956977802      1.0000000000
    s 1 
     1       1.2149128721      1.0000000000
    s 1 
     1       0.5588574376      1.0000000000
    s 1 
     1       0.1409797431      1.0000000000
    s 1 
     1       0.0500219250      1.0000000000
    p 4 
     1      15.9026641430     -0.3696129600
     2      14.4158306980      0.5328002574
     3       5.7597608991     -0.6875844229
     4       1.5008913108      1.2595095548
    p 1 
     1       0.7234803596      1.0000000000
    p 1 
     1       0.3278598033      1.0000000000
    p 1 
     1       0.0560000000      1.0000000000
    d 4 
     1       8.6321692504      0.0580379198
     2       6.5898192302     -0.1340826234
     3       1.5808379663      0.4261153634
     4       0.7182783490      0.6598797561
    d 1 
     1       0.3057185200      1.0000000000
    d 1 
     1       0.1182707188      1.0000000000
    f 1 
     1       0.6100800000      1.0000000000
  end
  NewAuxGTO 77
    S 1
     1 1310.72 1.0
    S 1
     1  655.36 1.0
    S 1
     1  327.68 1.0
    S 1
     1  163.84 1.0
    S 1
     1   81.82 1.0
    S 1
     1   40.96 1.0
    S 1
     1   20.48 1.0
    S 1
     1   10.24 1.0
    S 1
     1    5.12 1.0
    S 1
     1    2.56 1.0
    S 1
     1    1.28 1.0
    S 1
     1    0.64 1.0
    S 1
     1    0.32 1.0
    S 1
     1    0.16 1.0
    S 1
     1    0.08 1.0
    S 1
     1    0.04 1.0
    S 1
     1    0.02 1.0
    S 1
     1    0.01 1.0
  end
end

* xyz 0 4
77  0.0 0.0 0.0
*