# input to generate an atomic fitting density for Tm
# this file is used internally by ORCA
#
# atomic ground state (S=2): 1s2 2s2 2p6 3s2 3p6 4s2 3d10 4p6 5s2 4d10 5p6 6s2 4f13 
#
! RHF AllowRHF def2-SVP def2/J  NoMulliken NoLoewdin NoMayer NoPrintMOs 

%output print[p_atomdensfit] 2 end

%scf
  guess hcore
  maxiter 1000
  maxdisk 500000
  SCFMode Conventional
  lshift 1.000000
  hftyp rohf
  rohf_case sahf
  rohf_numop   2
  rohf_norb[1] 7
  rohf_nel[1]  13
end

%basis
  NewECP 69
    N_core 28
    lmax h
    s 1
      1      31.1441220000    845.5107430000  2
    p 1
      1      18.0923530000    258.5852390000  2
    d 1
      1      11.4691590000     80.7290590000  2
    f 1
      1      23.6055440000    -48.7012660000  2
    g 1
      1      27.3297810000    -33.3954960000  2
    h 1
      1       1.0000000000      0.0000000000  2
  end
  NewGTO 69
    s 5 
     1   91965.7410000000      0.0034834473
     2   13821.7180000000      0.0261258549
     3    3143.9393000000      0.1250308770
     4     882.0348000000      0.3689343937
     5     261.8382000000      0.6015789110
    s 1 
     1      55.3108000000      1.0000000000
    s 1 
     1      39.5077000000      1.0000000000
    s 1 
     1      19.6251000000      1.0000000000
    s 1 
     1       4.8195000000      1.0000000000
    s 1 
     1       2.3954000000      1.0000000000
    s 1 
     1       0.8926000000      1.0000000000
    s 1 
     1       0.3765000000      1.0000000000
    s 1 
     1       0.0615000000      1.0000000000
    s 1 
     1       0.0250000000      1.0000000000
    p 6 
     1    1416.2116000000     -0.0048993097
     2     364.6677400000     -0.0286259042
     3     124.3216200000     -0.0829355363
     4      42.4521950000     -0.1873788839
     5      14.7305450000      1.2153502866
     6       5.4481245000     -1.5669124227
    p 3 
     1      11.9917720000     -0.3197039499
     2       9.8698236000     -0.4257686800
     3       2.0053929000     -0.4113108426
    p 1 
     1       3.5694494000      1.0000000000
    p 1 
     1       1.3379669000      1.0000000000
    p 1 
     1       0.5792940800      1.0000000000
    p 1 
     1       0.2369611000      1.0000000000
    p 1 
     1       0.0765125971      1.0000000000
    p 1 
     1       0.0283466997      1.0000000000
    d 6 
     1     462.7563000000      0.0020192489
     2     140.2688000000      0.0163724256
     3      54.0389000000      0.0652966673
     4      22.9937000000      0.1431291874
     5       9.1744000000      0.3743750946
     6       4.4985000000      0.5668730124
    d 1 
     1       2.1434000000      1.0000000000
    d 1 
     1       0.9195000000      1.0000000000
    d 1 
     1       0.3131000000      1.0000000000
    d 1 
     1       0.0934000000      1.0000000000
    f 5 
     1     139.4592000000      0.0082508768
     2      50.4688000000      0.0741419926
     3      22.6469000000      0.2378501503
     4      10.3467000000      0.4077864783
     5       4.7136000000      0.4862746685
    f 1 
     1       2.0773000000      1.0000000000
    f 1 
     1       0.8490000000      1.0000000000
    f 1 
     1       0.3023000000      1.0000000000
  end
  NewAuxGTO 69
    S 1
     1 1310.72 1.0
    S 1
     1  655.36 1.0
    S 1
     1  327.68 1.0
    S 1
     1  163.84 1.0
    S 1
     1   81.82 1.0
    S 1
     1   40.96 1.0
    S 1
     1   20.48 1.0
    S 1
     1   10.24 1.0
    S 1
     1    5.12 1.0
    S 1
     1    2.56 1.0
    S 1
     1    1.28 1.0
    S 1
     1    0.64 1.0
    S 1
     1    0.32 1.0
    S 1
     1    0.16 1.0
    S 1
     1    0.08 1.0
    S 1
     1    0.04 1.0
    S 1
     1    0.02 1.0
    S 1
     1    0.01 1.0
  end
end

* xyz 0 2
69  0.0 0.0 0.0
*