# input to generate an atomic fitting density for Pt
# this file is used internally by ORCA
#
# atomic ground state (S=3): 1s2 2s2 2p6 3s2 3p6 4s2 3d10 4p6 5s2 4d10 5p6 6s2 4f14 5d8 
#
! RHF AllowRHF def2-SVP def2/J  NoMulliken NoLoewdin NoMayer NoPrintMOs 

%output print[p_atomdensfit] 2 end

%scf
  guess hcore
  maxiter 1000
  maxdisk 500000
  SCFMode Conventional
  lshift 1.000000
  hftyp rohf
  rohf_case sahf
  rohf_numop   2
  rohf_norb[1] 5
  rohf_nel[1]  8
end

%basis
  NewECP 78
    N_core 60
    lmax f
    s 3
      1      13.4286513000    579.2238609000  2
      2       6.7143256000     29.6694906000  2
      3       3.3095686000    -24.3143757000  2
    p 3
      1      10.3659442000    280.8607742000  2
      2       5.1829721000     26.7453820000  2
      3       3.3095686000    -24.3143757000  2
    d 3
      1       7.6004795000    120.3964443000  2
      2       3.8002397000     15.8109206000  2
      3       3.3095686000    -24.3143757000  2
    f 1
      1       3.3095686000     24.3143757000  2
  end
  NewGTO 78
    s 3 
     1      30.0000000000      0.9054938287
     2      27.0000000000     -1.4084167449
     3      14.4083185640      1.4796209021
    s 1 
     1       5.5335788010      1.0000000000
    s 1 
     1       1.2986438223      1.0000000000
    s 1 
     1       0.5875939311      1.0000000000
    s 1 
     1       0.1384558726      1.0000000000
    s 1 
     1       0.0492044599      1.0000000000
    p 4 
     1      15.5000000000     -0.3478541841
     2      14.0000000000      0.5294237528
     3       6.1161212339     -0.6889598464
     4       1.5715586385      1.2534233823
    p 1 
     1       0.7513251078      1.0000000000
    p 1 
     1       0.3330646681      1.0000000000
    p 1 
     1       0.0570000000      1.0000000000
    d 4 
     1       8.3207937611      0.1635155571
     2       7.4207226520     -0.2345009785
     3       1.6570410639      0.4367423536
     4       0.7394356996      0.6506097943
    d 1 
     1       0.3051085601      1.0000000000
    d 1 
     1       0.1135040527      1.0000000000
    f 1 
     1       0.6681300000      1.0000000000
  end
  NewAuxGTO 78
    S 1
     1 1310.72 1.0
    S 1
     1  655.36 1.0
    S 1
     1  327.68 1.0
    S 1
     1  163.84 1.0
    S 1
     1   81.82 1.0
    S 1
     1   40.96 1.0
    S 1
     1   20.48 1.0
    S 1
     1   10.24 1.0
    S 1
     1    5.12 1.0
    S 1
     1    2.56 1.0
    S 1
     1    1.28 1.0
    S 1
     1    0.64 1.0
    S 1
     1    0.32 1.0
    S 1
     1    0.16 1.0
    S 1
     1    0.08 1.0
    S 1
     1    0.04 1.0
    S 1
     1    0.02 1.0
    S 1
     1    0.01 1.0
  end
end

* xyz 0 3
78  0.0 0.0 0.0
*
 