 # input to generate an atomic fitting density for Hg
 # this file is used internally by ORCA
 #
 # atomic ground state (S=1): 1s2 2s2 2p6 3s2 3p6 4s2 3d10 4p6 5s2 4d10 5p6 6s2 4f14 5d10 
 #
 ! RHF AllowRHF def2-SVP def2/J  NoMulliken NoLoewdin NoMayer NoPrintMOs 
 
 %output print[p_atomdensfit] 2 end
 
 %scf
   guess hcore
   maxiter 1000
   maxdisk 500000
   SCFMode Conventional
   lshift 1.000000
   hftyp rohf
   rohf_case sahf
   rohf_numop   2
   rohf_norb[1] 5
   rohf_nel[1]  10
 end
 
 %basis
   NewECP 80
     N_core 60
     lmax f
     s 3
       1      12.9815487000    275.7372117000  2
       2       6.4907744000     49.0892125000  2
       3       3.8857911000    -30.3649964000  2
     p 3
       1      10.5380958000    241.5400740000  2
       2       5.2690479000     27.3965908000  2
       3       3.8857911000    -30.3649964000  2
     d 3
       1       8.1017205000    127.8670076000  2
       2       4.0508603000     16.6083115000  2
       3       3.8857911000    -30.3649964000  2
     f 1
       1       3.8857911000     30.3649964000  2
   end
   NewGTO 80
     s 3 
      1      48.0137869900      0.0289798220
      2      21.2398750950     -0.8656835524
      3      15.8761008790      1.8193112096
     s 1 
      1       5.5180531820      1.0000000000
     s 1 
      1       1.5099145479      1.0000000000
     s 1 
      1       0.7068348216      1.0000000000
     s 1 
      1       0.1626626558      1.0000000000
     s 1 
      1       0.0569605891      1.0000000000
     p 4 
      1      17.5000000000     -0.2060509577
      2      15.2525948550      0.3652916199
      3       6.4404715169     -0.7215344055
      4       1.8180159920      1.2955770587
     p 1 
      1       0.9006798180      1.0000000000
     p 1 
      1       0.4130454012      1.0000000000
     p 1 
      1       0.1184570265      1.0000000000
     p 1 
      1       0.0360876193      1.0000000000
     d 4 
      1      10.0281977010      0.0565424472
      2       7.5920661493     -0.1342297359
      3       1.9144256118      0.4413812282
      4       0.8864155210      0.6453713071
     d 1 
      1       0.3815423532      1.0000000000
     d 1 
      1       0.1488074009      1.0000000000
     f 1 
      1       0.7956900000      1.0000000000
   end
   NewAuxGTO 80
     S 1
      1 1310.72 1.0
     S 1
      1  655.36 1.0
     S 1
      1  327.68 1.0
     S 1
      1  163.84 1.0
     S 1
      1   81.82 1.0
     S 1
      1   40.96 1.0
     S 1
      1   20.48 1.0
     S 1
      1   10.24 1.0
     S 1
      1    5.12 1.0
     S 1
      1    2.56 1.0
     S 1
      1    1.28 1.0
     S 1
      1    0.64 1.0
     S 1
      1    0.32 1.0
     S 1
      1    0.16 1.0
     S 1
      1    0.08 1.0
     S 1
      1    0.04 1.0
     S 1
      1    0.02 1.0
     S 1
      1    0.01 1.0
   end
 end
 
 * xyz 0 1
 80  0.0 0.0 0.0
 *
