! RHF AllowRHF def2-SVP def2/J  NoMulliken NoLoewdin NoMayer NoPrintMOs 

%output print[p_atomdensfit] 2 end

%scf
  guess hcore
  maxiter 1000
  maxdisk 500000
  SCFMode Conventional
  lshift 0.600000
  hftyp rohf
  rohf_case sahf
  rohf_numop   3
  rohf_norb[1] 5,1
  rohf_nel[1]  1,2
end

%basis
  NewECP 39
    N_core 28
    lmax f
    s 4
      1       7.4880494000    135.1538441000  2
      2       3.7440247000     15.5524413000  2
      3       6.5842120000     19.1221981000  2
      4       3.2921060000      2.4363754000  2
    p 4
      1       6.4453772000     87.7849917000  2
      2       3.2226886000     11.5640660000  2
      3       6.5842120000     19.1221981000  2
      4       3.2921060000      2.4363754000  2
    d 4
      1       4.6584472000     29.7010007000  2
      2       2.3292236000      5.5399685000  2
      3       6.5842120000     19.1221981000  2
      4       3.2921060000      2.4363754000  2
    f 2
      1       6.5842120000    -19.1221981000  2
      2       3.2921060000     -2.4363754000  2
  end
  NewGTO 39
    s 2 
     1      10.0000000000     -1.0384252283
     2       8.5000000000      2.0279787226
    s 1 
     1       3.3653905454      1.0000000000
    s 1 
     1       0.6886067939      1.0000000000
    s 1 
     1       0.3119150294      1.0000000000
    s 1 
     1       0.0703260426      1.0000000000
    s 1 
     1       0.0277338593      1.0000000000
    p 4 
     1       8.0554093616      0.0370452674
     2       4.0163458751     -0.2123617809
     3       1.0232915404      0.4980977153
     4       0.4984356164      0.6166781935
    p 1 
     1       0.2330766184      1.0000000000
    p 1 
     1       0.0800000000      1.0000000000
    p 1 
     1       0.0270000000      1.0000000000
    d 3 
     1       3.9030833060     -0.0177028307
     2       1.1363234302      0.3457949947
     3       0.4561704388      0.7317964494
    d 1 
     1       0.1747095075      1.0000000000
    d 1 
     1       0.0619787966      1.0000000000
  end
  NewAuxGTO 39
    S 1
     1 1310.72 1.0
    S 1
     1  655.36 1.0
    S 1
     1  327.68 1.0
    S 1
     1  163.84 1.0
    S 1
     1   81.82 1.0
    S 1
     1   40.96 1.0
    S 1
     1   20.48 1.0
    S 1
     1   10.24 1.0
    S 1
     1    5.12 1.0
    S 1
     1    2.56 1.0
    S 1
     1    1.28 1.0
    S 1
     1    0.64 1.0
    S 1
     1    0.32 1.0
    S 1
     1    0.16 1.0
    S 1
     1    0.08 1.0
    S 1
     1    0.04 1.0
    S 1
     1    0.02 1.0
    S 1
     1    0.01 1.0
  end
end

* xyz 0 2
39  0.0 0.0 0.0
*
