# input to generate an atomic fitting density for Tl
# this file is used internally by ORCA
#
# atomic ground state (S=2): 1s2 2s2 2p6 3s2 3p6 4s2 3d10 4p6 5s2 4d10 5p6 6s2 4f14 5d10 6p1 
#
! RHF AllowRHF def2-SVP def2/J  NoMulliken NoLoewdin NoMayer NoPrintMOs 

%output print[p_atomdensfit] 2 end

%scf
  guess hcore
  maxiter 1000
  maxdisk 500000
  SCFMode Conventional
  lshift 1.000000
  hftyp rohf
  rohf_case sahf
  rohf_numop   2
  rohf_norb[1] 3
  rohf_nel[1]  1
end

%basis
  NewECP 81
    N_core 60
    lmax f
    s 6
      1      12.1678050000    281.2846630000  2
      2       8.2949090000     62.4342510000  2
      3       5.6263990000    -15.8254880000  2
      4       5.5489520000    -21.1040210000  2
      5       2.8749460000     -2.9151270000  2
      6       2.8214510000     -3.8969030000  2
    p 8
      1       7.1514920000      4.6334080000  2
      2       5.1728650000      9.3417560000  2
      3       9.8910720000     72.2992530000  2
      4       9.0033910000    144.5580370000  2
      5       5.6263990000    -15.8254880000  2
      6       5.5489520000    -21.1040210000  2
      7       2.8749460000     -2.9151270000  2
      8       2.8214510000     -3.8969030000  2
    d 8
      1       7.1302180000     35.9430390000  2
      2       6.9269060000     53.9095930000  2
      3       5.4175700000     10.3819390000  2
      4       5.1386810000     15.5838220000  2
      5       5.6263990000    -15.8254880000  2
      6       5.5489520000    -21.1040210000  2
      7       2.8749460000     -2.9151270000  2
      8       2.8214510000     -3.8969030000  2
    f 4
      1       5.6263990000     15.8254880000  2
      2       5.5489520000     21.1040210000  2
      3       2.8749460000      2.9151270000  2
      4       2.8214510000      3.8969030000  2
  end
  NewGTO 81
    s 4 
     1     729.6503814500      0.0006142718
     2      46.6655487070      0.0271550952
     3      20.9704487260     -0.8995204906
     4      14.1495886770      1.8330747970
    s 2 
     1      20.7301342850     -0.0775732709
     2       6.1527631309      1.0585195425
    s 1 
     1       1.5757324480      1.0000000000
    s 1 
     1       0.7498016946      1.0000000000
    s 1 
     1       0.1953681619      1.0000000000
    s 1 
     1       0.0708787673      1.0000000000
    p 3 
     1      15.3838526160      2.0084242419
     2      14.8149295440     -2.3709837424
     3       6.7261253658      1.3159389276
    p 3 
     1       1.9626182149      0.4740914507
     2       1.0331857851      0.4309501157
     3       0.5383744600      0.1538728384
    p 1 
     1       0.2444661168      1.0000000000
    p 1 
     1       0.0907853773      1.0000000000
    p 1 
     1       0.0334013215      1.0000000000
    d 6 
     1      57.6068199280      0.0002503588
     2       9.7368866667      0.0381375716
     3       6.9256201679     -0.1090251232
     4       2.1396230731      0.3040248906
     5       1.0836187110      0.4636351316
     6       0.5235629821      0.3700255523
    d 1 
     1       0.2384230938      1.0000000000
    d 1 
     1       0.0950000000      1.0000000000
    f 1 
     1       0.2843500000      1.0000000000
    f 1 
     1       0.9500000000      1.0000000000
  end
  NewAuxGTO 81
    S 1
     1 1310.72 1.0
    S 1
     1  655.36 1.0
    S 1
     1  327.68 1.0
    S 1
     1  163.84 1.0
    S 1
     1   81.82 1.0
    S 1
     1   40.96 1.0
    S 1
     1   20.48 1.0
    S 1
     1   10.24 1.0
    S 1
     1    5.12 1.0
    S 1
     1    2.56 1.0
    S 1
     1    1.28 1.0
    S 1
     1    0.64 1.0
    S 1
     1    0.32 1.0
    S 1
     1    0.16 1.0
    S 1
     1    0.08 1.0
    S 1
     1    0.04 1.0
    S 1
     1    0.02 1.0
    S 1
     1    0.01 1.0
  end
end

* xyz 0 2
81  0.0 0.0 0.0
*