# input to generate an atomic fitting density for Ru
# this file is used internally by ORCA
#
# atomic ground state (S=5): 1s2 2s2 2p6 3s2 3p6 4s2 3d10 4p6 5s2 4d6 
#
! RHF AllowRHF def2-SVP def2/J  NoMulliken NoLoewdin NoMayer NoPrintMOs 

%output print[p_atomdensfit] 2 end

%scf
  guess hcore
  maxiter 1000
  maxdisk 500000
  SCFMode Conventional
  lshift 1.000000
  hftyp rohf
  rohf_case sahf
  rohf_numop   2
  rohf_norb[1] 5
  rohf_nel[1]  6
end

%basis
  NewECP 44
    N_core 28
    lmax f
    s 4
      1      11.1052693000    209.8229712000  2
      2       5.4147454000     30.6547264000  2
      3      11.3600000000     28.3406163000  2
      4       5.6800000000      4.9446292000  2
    p 4
      1       9.7712707000    146.3361823000  2
      2       5.0739908000     24.1278772000  2
      3      11.3600000000     28.3406163000  2
      4       5.6800000000      4.9446292000  2
    d 4
      1       7.6714231000     67.5158967000  2
      2       4.1365647000      9.8701041000  2
      3      11.3600000000     28.3406163000  2
      4       5.6800000000      4.9446292000  2
    f 2
      1      11.3600000000    -28.3406163000  2
      2       5.6800000000     -4.9446292000  2
  end
  NewGTO 44
    s 2 
     1      16.0000000000     -1.5737642279
     2      13.9105816940      2.5589062345
    s 1 
     1       4.7967971407      1.0000000000
    s 1 
     1       1.1555425594      1.0000000000
    s 1 
     1       0.5245574118      1.0000000000
    s 1 
     1       0.1073457265      1.0000000000
    s 1 
     1       0.0394327602      1.0000000000
    p 4 
     1      11.1872086710      0.0614129072
     2       6.2477688734     -0.2622856795
     3       1.6279472859      0.5523344774
     4       0.7932649354      0.5793783366
    p 1 
     1       0.3670727686      1.0000000000
    p 1 
     1       0.1150000000      1.0000000000
    p 1 
     1       0.0370000000      1.0000000000
    d 3 
     1       5.7341846619     -0.0576319015
     2       2.2483686294      0.3562966266
     3       0.9837697836      0.7306439889
    d 1 
     1       0.4037944558      1.0000000000
    d 1 
     1       0.1497861817      1.0000000000
  end
  NewAuxGTO 44
    S 1
     1 1310.72 1.0
    S 1
     1  655.36 1.0
    S 1
     1  327.68 1.0
    S 1
     1  163.84 1.0
    S 1
     1   81.82 1.0
    S 1
     1   40.96 1.0
    S 1
     1   20.48 1.0
    S 1
     1   10.24 1.0
    S 1
     1    5.12 1.0
    S 1
     1    2.56 1.0
    S 1
     1    1.28 1.0
    S 1
     1    0.64 1.0
    S 1
     1    0.32 1.0
    S 1
     1    0.16 1.0
    S 1
     1    0.08 1.0
    S 1
     1    0.04 1.0
    S 1
     1    0.02 1.0
    S 1
     1    0.01 1.0
  end
end

* xyz 0 5
44  0.0 0.0 0.0
*
